/*---------------------------------------------------------------------------*\
| =========                 |                                                 |
| \\      /  F ield         | OpenFOAM: The Open Source CFD Toolbox           |
|  \\    /   O peration     | Version:  2306                                  |
|   \\  /    A nd           | Website:  www.openfoam.com                      |
|    \\/     M anipulation  |                                                 |
\*---------------------------------------------------------------------------*/
Build  : _fbf00d6bf2-20230626 OPENFOAM=2306 version=v2306
Arch   : "LSB;label=32;scalar=64"
Exec   : myPisoFoam
Date   : May 31 2024
Time   : 16:51:09
Host   : champ
PID    : 164074
I/O    : uncollated
Case   : /home/kaushal/Desktop/porousBlockage
nProcs : 1
trapFpe: Floating point exception trapping enabled (FOAM_SIGFPE).
fileModificationChecking : Monitoring run-time modified files using timeStampMaster (fileModificationSkew 5, maxFileModificationPolls 20)
allowSystemOperations : Allowing user-supplied system call operations

// * * * * * * * * * * * * * * * * * * * * * * * * * * * * * * * * * * * * * //
Create time

Create mesh for time = 0


PISO: Operating solver in PISO mode

Reading field p

Reading field U

Reading field T

Reading/calculating face flux field phi

Selecting incompressible transport model Newtonian
Selecting turbulence model type laminar
Selecting laminar stress model Stokes
No MRF models present

Creating finite volume options from "constant/fvOptions"

Selecting finite volume options type explicitPorositySource
    Source: porosity1
    - selecting cells using cellZones (porousBlockage)
    - selected 1024 cell(s) with volume 0.2
Porosity region porosity1:
    selecting model: DarcyForchheimer
    creating porous zone: porousBlockage
    origin: (0 0 0) identity rotation
    local bounds: (1 1 0.2)


Starting time loop

Time = 0.005

Courant Number mean: 0.16 max: 0.16
smoothSolver:  Solving for Ux, Initial residual = 1, Final residual = 5.82499e-06, No Iterations 3
smoothSolver:  Solving for Uy, Initial residual = 0, Final residual = 0, No Iterations 0
GAMG:  Solving for p, Initial residual = 1, Final residual = 0.0346215, No Iterations 3
time step continuity errors : sum local = 1.0228e-06, global = -1.15612e-07, cumulative = -1.15612e-07
GAMG:  Solving for p, Initial residual = 0.00909826, Final residual = 6.74297e-07, No Iterations 8
time step continuity errors : sum local = 3.50982e-10, global = 4.4527e-11, cumulative = -1.15567e-07
smoothSolver:  Solving for T, Initial residual = 1, Final residual = 1.13634e-06, No Iterations 6
ExecutionTime = 0.51 s  ClockTime = 0 s

Time = 0.01

Courant Number mean: 0.16044 max: 0.173006
smoothSolver:  Solving for Ux, Initial residual = 0.319206, Final residual = 1.5262e-06, No Iterations 3
smoothSolver:  Solving for Uy, Initial residual = 0.331845, Final residual = 5.17598e-07, No Iterations 3
GAMG:  Solving for p, Initial residual = 0.00633598, Final residual = 0.000620996, No Iterations 2
time step continuity errors : sum local = 3.23506e-07, global = 2.25838e-08, cumulative = -9.29833e-08
GAMG:  Solving for p, Initial residual = 0.00127713, Final residual = 9.23774e-07, No Iterations 6
time step continuity errors : sum local = 4.50967e-10, global = 8.27233e-11, cumulative = -9.29006e-08
smoothSolver:  Solving for T, Initial residual = 0.26426, Final residual = 3.00265e-06, No Iterations 5
ExecutionTime = 0.7 s  ClockTime = 0 s

Time = 0.015

Courant Number mean: 0.16084 max: 0.184477
smoothSolver:  Solving for Ux, Initial residual = 0.182545, Final residual = 8.25399e-07, No Iterations 3
smoothSolver:  Solving for Uy, Initial residual = 0.190929, Final residual = 3.46368e-07, No Iterations 3
GAMG:  Solving for p, Initial residual = 0.00579321, Final residual = 0.000157244, No Iterations 3
time step continuity errors : sum local = 7.41499e-08, global = 7.79782e-09, cumulative = -8.51028e-08
GAMG:  Solving for p, Initial residual = 0.000776469, Final residual = 5.57643e-07, No Iterations 6
time step continuity errors : sum local = 2.44188e-10, global = -1.87132e-11, cumulative = -8.51215e-08
smoothSolver:  Solving for T, Initial residual = 0.152649, Final residual = 1.83572e-06, No Iterations 5
ExecutionTime = 0.88 s  ClockTime = 1 s

Time = 0.02

Courant Number mean: 0.161204 max: 0.194637
smoothSolver:  Solving for Ux, Initial residual = 0.124686, Final residual = 5.41949e-07, No Iterations 3
smoothSolver:  Solving for Uy, Initial residual = 0.130524, Final residual = 2.76609e-07, No Iterations 3
GAMG:  Solving for p, Initial residual = 0.00543787, Final residual = 0.000153015, No Iterations 3
time step continuity errors : sum local = 6.70741e-08, global = 7.15448e-09, cumulative = -7.7967e-08
GAMG:  Solving for p, Initial residual = 0.000750351, Final residual = 5.59259e-07, No Iterations 6
time step continuity errors : sum local = 2.27381e-10, global = -2.41571e-11, cumulative = -7.79912e-08
smoothSolver:  Solving for T, Initial residual = 0.107321, Final residual = 1.3458e-06, No Iterations 5
ExecutionTime = 1.07 s  ClockTime = 1 s

Time = 0.025

Courant Number mean: 0.161537 max: 0.203659
smoothSolver:  Solving for Ux, Initial residual = 0.0929027, Final residual = 3.92172e-07, No Iterations 3
smoothSolver:  Solving for Uy, Initial residual = 0.097172, Final residual = 2.38743e-07, No Iterations 3
GAMG:  Solving for p, Initial residual = 0.00516983, Final residual = 0.000146867, No Iterations 3
time step continuity errors : sum local = 5.97835e-08, global = 6.41908e-09, cumulative = -7.15721e-08
GAMG:  Solving for p, Initial residual = 0.000717089, Final residual = 5.40169e-07, No Iterations 6
time step continuity errors : sum local = 2.04632e-10, global = -2.16863e-11, cumulative = -7.15938e-08
smoothSolver:  Solving for T, Initial residual = 0.0827478, Final residual = 9.85116e-06, No Iterations 4
ExecutionTime = 1.26 s  ClockTime = 1 s

Time = 0.03

Courant Number mean: 0.161843 max: 0.21169
smoothSolver:  Solving for Ux, Initial residual = 0.0729554, Final residual = 3.02565e-07, No Iterations 3
smoothSolver:  Solving for Uy, Initial residual = 0.0761827, Final residual = 2.15142e-07, No Iterations 3
GAMG:  Solving for p, Initial residual = 0.00494155, Final residual = 0.000141377, No Iterations 3
time step continuity errors : sum local = 5.35923e-08, global = 5.78359e-09, cumulative = -6.58102e-08
GAMG:  Solving for p, Initial residual = 0.000687568, Final residual = 5.18498e-07, No Iterations 6
time step continuity errors : sum local = 1.83526e-10, global = -1.88019e-11, cumulative = -6.5829e-08
smoothSolver:  Solving for T, Initial residual = 0.0673552, Final residual = 8.20702e-06, No Iterations 4
ExecutionTime = 1.44 s  ClockTime = 1 s

Time = 0.035

Courant Number mean: 0.162126 max: 0.219144
smoothSolver:  Solving for Ux, Initial residual = 0.0593539, Final residual = 8.76712e-06, No Iterations 2
smoothSolver:  Solving for Uy, Initial residual = 0.06185, Final residual = 9.13787e-06, No Iterations 2
GAMG:  Solving for p, Initial residual = 0.00474876, Final residual = 0.000136213, No Iterations 3
time step continuity errors : sum local = 4.82195e-08, global = 5.22809e-09, cumulative = -6.06009e-08
GAMG:  Solving for p, Initial residual = 0.000660958, Final residual = 4.95716e-07, No Iterations 6
time step continuity errors : sum local = 1.64373e-10, global = -1.57415e-11, cumulative = -6.06166e-08
smoothSolver:  Solving for T, Initial residual = 0.0567964, Final residual = 7.05055e-06, No Iterations 4
ExecutionTime = 1.63 s  ClockTime = 1 s

Time = 0.04

Courant Number mean: 0.162387 max: 0.226652
smoothSolver:  Solving for Ux, Initial residual = 0.0495404, Final residual = 7.81693e-06, No Iterations 2
smoothSolver:  Solving for Uy, Initial residual = 0.0515036, Final residual = 8.32499e-06, No Iterations 2
GAMG:  Solving for p, Initial residual = 0.00461772, Final residual = 0.000130904, No Iterations 3
time step continuity errors : sum local = 4.33917e-08, global = 4.73997e-09, cumulative = -5.58767e-08
GAMG:  Solving for p, Initial residual = 0.00063779, Final residual = 4.73904e-07, No Iterations 6
time step continuity errors : sum local = 1.47582e-10, global = -1.29352e-11, cumulative = -5.58896e-08
smoothSolver:  Solving for T, Initial residual = 0.0491037, Final residual = 6.18921e-06, No Iterations 4
ExecutionTime = 1.81 s  ClockTime = 2 s

Time = 0.045

Courant Number mean: 0.162628 max: 0.233569
smoothSolver:  Solving for Ux, Initial residual = 0.0421619, Final residual = 7.18582e-06, No Iterations 2
smoothSolver:  Solving for Uy, Initial residual = 0.0437537, Final residual = 7.67492e-06, No Iterations 2
GAMG:  Solving for p, Initial residual = 0.00457578, Final residual = 0.000125513, No Iterations 3
time step continuity errors : sum local = 3.90587e-08, global = 4.30811e-09, cumulative = -5.15815e-08
GAMG:  Solving for p, Initial residual = 0.000619545, Final residual = 4.5302e-07, No Iterations 6
time step continuity errors : sum local = 1.32812e-10, global = -1.0334e-11, cumulative = -5.15918e-08
smoothSolver:  Solving for T, Initial residual = 0.0432424, Final residual = 5.52e-06, No Iterations 4
ExecutionTime = 2 s  ClockTime = 2 s

Time = 0.05

Courant Number mean: 0.162853 max: 0.239929
smoothSolver:  Solving for Ux, Initial residual = 0.0364379, Final residual = 6.73768e-06, No Iterations 2
smoothSolver:  Solving for Uy, Initial residual = 0.0377422, Final residual = 7.13951e-06, No Iterations 2
GAMG:  Solving for p, Initial residual = 0.0045735, Final residual = 0.000120134, No Iterations 3
time step continuity errors : sum local = 3.51832e-08, global = 3.92464e-09, cumulative = -4.76672e-08
GAMG:  Solving for p, Initial residual = 0.000603553, Final residual = 4.33191e-07, No Iterations 6
time step continuity errors : sum local = 1.19834e-10, global = -7.97343e-12, cumulative = -4.76752e-08
smoothSolver:  Solving for T, Initial residual = 0.038635, Final residual = 4.98495e-06, No Iterations 4
ExecutionTime = 2.18 s  ClockTime = 2 s

Time = 0.055

Courant Number mean: 0.163063 max: 0.245767
smoothSolver:  Solving for Ux, Initial residual = 0.0318976, Final residual = 6.41915e-06, No Iterations 2
smoothSolver:  Solving for Uy, Initial residual = 0.0329655, Final residual = 6.68322e-06, No Iterations 2
GAMG:  Solving for p, Initial residual = 0.00459733, Final residual = 0.000114827, No Iterations 3
time step continuity errors : sum local = 3.17244e-08, global = 3.58327e-09, cumulative = -4.40919e-08
GAMG:  Solving for p, Initial residual = 0.000590647, Final residual = 4.14417e-07, No Iterations 6
time step continuity errors : sum local = 1.08415e-10, global = -5.88581e-12, cumulative = -4.40978e-08
smoothSolver:  Solving for T, Initial residual = 0.0349184, Final residual = 4.54683e-06, No Iterations 4
ExecutionTime = 2.37 s  ClockTime = 2 s

Time = 0.06

Courant Number mean: 0.163259 max: 0.251116
smoothSolver:  Solving for Ux, Initial residual = 0.0282319, Final residual = 6.17086e-06, No Iterations 2
smoothSolver:  Solving for Uy, Initial residual = 0.0290963, Final residual = 6.28746e-06, No Iterations 2
GAMG:  Solving for p, Initial residual = 0.00462323, Final residual = 0.000109671, No Iterations 3
time step continuity errors : sum local = 2.86488e-08, global = 3.27873e-09, cumulative = -4.0819e-08
GAMG:  Solving for p, Initial residual = 0.000578681, Final residual = 3.96636e-07, No Iterations 6
time step continuity errors : sum local = 9.83365e-11, global = -4.0895e-12, cumulative = -4.08231e-08
smoothSolver:  Solving for T, Initial residual = 0.0318572, Final residual = 4.18113e-06, No Iterations 4
ExecutionTime = 2.55 s  ClockTime = 2 s

Time = 0.065

Courant Number mean: 0.163443 max: 0.256008
smoothSolver:  Solving for Ux, Initial residual = 0.0252168, Final residual = 5.95173e-06, No Iterations 2
smoothSolver:  Solving for Uy, Initial residual = 0.025909, Final residual = 5.93454e-06, No Iterations 2
GAMG:  Solving for p, Initial residual = 0.00463551, Final residual = 0.000453312, No Iterations 2
time step continuity errors : sum local = 1.12205e-07, global = 4.17296e-09, cumulative = -3.66502e-08
GAMG:  Solving for p, Initial residual = 0.000810649, Final residual = 7.21873e-07, No Iterations 6
time step continuity errors : sum local = 1.73361e-10, global = 5.40668e-12, cumulative = -3.66448e-08
smoothSolver:  Solving for T, Initial residual = 0.0292922, Final residual = 3.87106e-06, No Iterations 4
ExecutionTime = 2.73 s  ClockTime = 2 s

Time = 0.07

Courant Number mean: 0.163615 max: 0.260475
smoothSolver:  Solving for Ux, Initial residual = 0.0226927, Final residual = 5.74854e-06, No Iterations 2
smoothSolver:  Solving for Uy, Initial residual = 0.023255, Final residual = 5.62043e-06, No Iterations 2
GAMG:  Solving for p, Initial residual = 0.00466493, Final residual = 0.000433321, No Iterations 2
time step continuity errors : sum local = 1.0159e-07, global = 4.4613e-09, cumulative = -3.21835e-08
GAMG:  Solving for p, Initial residual = 0.000787097, Final residual = 5.87933e-07, No Iterations 6
time step continuity errors : sum local = 1.34386e-10, global = 2.69959e-12, cumulative = -3.21808e-08
smoothSolver:  Solving for T, Initial residual = 0.0271081, Final residual = 3.60415e-06, No Iterations 4
ExecutionTime = 2.91 s  ClockTime = 3 s

Time = 0.075

Courant Number mean: 0.163777 max: 0.264545
smoothSolver:  Solving for Ux, Initial residual = 0.0205654, Final residual = 5.57436e-06, No Iterations 2
smoothSolver:  Solving for Uy, Initial residual = 0.0210211, Final residual = 5.33482e-06, No Iterations 2
GAMG:  Solving for p, Initial residual = 0.00465696, Final residual = 0.000418901, No Iterations 2
time step continuity errors : sum local = 9.34313e-08, global = 4.02875e-09, cumulative = -2.8152e-08
GAMG:  Solving for p, Initial residual = 0.000764283, Final residual = 5.57902e-07, No Iterations 6
time step continuity errors : sum local = 1.21462e-10, global = 2.44581e-12, cumulative = -2.81496e-08
smoothSolver:  Solving for T, Initial residual = 0.0252269, Final residual = 3.37201e-06, No Iterations 4
ExecutionTime = 3.09 s  ClockTime = 3 s

Time = 0.08

Courant Number mean: 0.16393 max: 0.268246
smoothSolver:  Solving for Ux, Initial residual = 0.0187479, Final residual = 5.41813e-06, No Iterations 2
smoothSolver:  Solving for Uy, Initial residual = 0.0191139, Final residual = 5.07415e-06, No Iterations 2
GAMG:  Solving for p, Initial residual = 0.00464699, Final residual = 0.000404926, No Iterations 2
time step continuity errors : sum local = 8.60857e-08, global = 3.68309e-09, cumulative = -2.44665e-08
GAMG:  Solving for p, Initial residual = 0.000742124, Final residual = 5.30502e-07, No Iterations 6
time step continuity errors : sum local = 1.102e-10, global = 2.22184e-12, cumulative = -2.44643e-08
smoothSolver:  Solving for T, Initial residual = 0.0235884, Final residual = 3.16804e-06, No Iterations 4
ExecutionTime = 3.28 s  ClockTime = 3 s

Time = 0.085

Courant Number mean: 0.164075 max: 0.271604
smoothSolver:  Solving for Ux, Initial residual = 0.0171807, Final residual = 5.28019e-06, No Iterations 2
smoothSolver:  Solving for Uy, Initial residual = 0.0174754, Final residual = 4.84154e-06, No Iterations 2
GAMG:  Solving for p, Initial residual = 0.00464235, Final residual = 0.000391574, No Iterations 2
time step continuity errors : sum local = 7.94861e-08, global = 3.37349e-09, cumulative = -2.10908e-08
GAMG:  Solving for p, Initial residual = 0.000721211, Final residual = 5.06142e-07, No Iterations 6
time step continuity errors : sum local = 1.00489e-10, global = 2.03034e-12, cumulative = -2.10887e-08
smoothSolver:  Solving for T, Initial residual = 0.0221505, Final residual = 2.98761e-06, No Iterations 4
ExecutionTime = 3.46 s  ClockTime = 3 s

Time = 0.09

Courant Number mean: 0.164212 max: 0.274643
smoothSolver:  Solving for Ux, Initial residual = 0.0158175, Final residual = 5.14981e-06, No Iterations 2
smoothSolver:  Solving for Uy, Initial residual = 0.0160627, Final residual = 4.63152e-06, No Iterations 2
GAMG:  Solving for p, Initial residual = 0.00459109, Final residual = 0.000378932, No Iterations 2
time step continuity errors : sum local = 7.35648e-08, global = 3.0985e-09, cumulative = -1.79902e-08
GAMG:  Solving for p, Initial residual = 0.000702165, Final residual = 4.84447e-07, No Iterations 6
time step continuity errors : sum local = 9.20655e-11, global = 1.85949e-12, cumulative = -1.79884e-08
smoothSolver:  Solving for T, Initial residual = 0.0208785, Final residual = 2.82682e-06, No Iterations 4
ExecutionTime = 3.64 s  ClockTime = 3 s

Time = 0.095

Courant Number mean: 0.164342 max: 0.277385
smoothSolver:  Solving for Ux, Initial residual = 0.0146236, Final residual = 5.02243e-06, No Iterations 2
smoothSolver:  Solving for Uy, Initial residual = 0.0148508, Final residual = 4.44193e-06, No Iterations 2
GAMG:  Solving for p, Initial residual = 0.00455163, Final residual = 0.00036681, No Iterations 2
time step continuity errors : sum local = 6.82083e-08, global = 2.85288e-09, cumulative = -1.51355e-08
GAMG:  Solving for p, Initial residual = 0.000684124, Final residual = 4.64595e-07, No Iterations 6
time step continuity errors : sum local = 8.46385e-11, global = 1.70661e-12, cumulative = -1.51338e-08
smoothSolver:  Solving for T, Initial residual = 0.0197451, Final residual = 2.68262e-06, No Iterations 4
ExecutionTime = 3.82 s  ClockTime = 4 s

Time = 0.1

Courant Number mean: 0.164465 max: 0.27985
smoothSolver:  Solving for Ux, Initial residual = 0.0135708, Final residual = 4.89752e-06, No Iterations 2
smoothSolver:  Solving for Uy, Initial residual = 0.013812, Final residual = 4.27736e-06, No Iterations 2
GAMG:  Solving for p, Initial residual = 0.00448467, Final residual = 0.000355083, No Iterations 2
time step continuity errors : sum local = 6.33363e-08, global = 2.63244e-09, cumulative = -1.25014e-08
GAMG:  Solving for p, Initial residual = 0.000665366, Final residual = 4.46106e-07, No Iterations 6
time step continuity errors : sum local = 7.80199e-11, global = 1.56923e-12, cumulative = -1.24998e-08
smoothSolver:  Solving for T, Initial residual = 0.018729, Final residual = 2.55253e-06, No Iterations 4
ExecutionTime = 4.01 s  ClockTime = 4 s

Time = 0.105

Courant Number mean: 0.164582 max: 0.282059
smoothSolver:  Solving for Ux, Initial residual = 0.0126366, Final residual = 4.7747e-06, No Iterations 2
smoothSolver:  Solving for Uy, Initial residual = 0.0129015, Final residual = 4.12538e-06, No Iterations 2
GAMG:  Solving for p, Initial residual = 0.0044439, Final residual = 0.000344299, No Iterations 2
time step continuity errors : sum local = 5.8994e-08, global = 2.43436e-09, cumulative = -1.00654e-08
GAMG:  Solving for p, Initial residual = 0.000648696, Final residual = 4.29105e-07, No Iterations 6
time step continuity errors : sum local = 7.21447e-11, global = 1.44681e-12, cumulative = -1.0064e-08
smoothSolver:  Solving for T, Initial residual = 0.0178129, Final residual = 2.43458e-06, No Iterations 4
ExecutionTime = 4.19 s  ClockTime = 4 s

Time = 0.11

Courant Number mean: 0.164694 max: 0.284028
smoothSolver:  Solving for Ux, Initial residual = 0.0118075, Final residual = 4.65356e-06, No Iterations 2
smoothSolver:  Solving for Uy, Initial residual = 0.0120895, Final residual = 3.98368e-06, No Iterations 2
GAMG:  Solving for p, Initial residual = 0.00437393, Final residual = 0.000333763, No Iterations 2
time step continuity errors : sum local = 5.50106e-08, global = 2.25597e-09, cumulative = -7.80801e-09
GAMG:  Solving for p, Initial residual = 0.000631147, Final residual = 4.12882e-07, No Iterations 6
time step continuity errors : sum local = 6.68196e-11, global = 1.33795e-12, cumulative = -7.80667e-09
smoothSolver:  Solving for T, Initial residual = 0.0169826, Final residual = 2.32712e-06, No Iterations 4
ExecutionTime = 4.37 s  ClockTime = 4 s

Time = 0.115

Courant Number mean: 0.1648 max: 0.285774
smoothSolver:  Solving for Ux, Initial residual = 0.0110673, Final residual = 4.53434e-06, No Iterations 2
smoothSolver:  Solving for Uy, Initial residual = 0.0113652, Final residual = 3.85881e-06, No Iterations 2
GAMG:  Solving for p, Initial residual = 0.00432774, Final residual = 0.000323839, No Iterations 2
time step continuity errors : sum local = 5.14082e-08, global = 2.0945e-09, cumulative = -5.71216e-09
GAMG:  Solving for p, Initial residual = 0.000614162, Final residual = 3.97566e-07, No Iterations 6
time step continuity errors : sum local = 6.20121e-11, global = 1.24273e-12, cumulative = -5.71092e-09
smoothSolver:  Solving for T, Initial residual = 0.0162266, Final residual = 2.22881e-06, No Iterations 4
ExecutionTime = 4.56 s  ClockTime = 4 s

Time = 0.12

Courant Number mean: 0.164902 max: 0.287311
smoothSolver:  Solving for Ux, Initial residual = 0.0104036, Final residual = 4.41753e-06, No Iterations 2
smoothSolver:  Solving for Uy, Initial residual = 0.010718, Final residual = 3.74121e-06, No Iterations 2
GAMG:  Solving for p, Initial residual = 0.00426427, Final residual = 0.000314472, No Iterations 2
time step continuity errors : sum local = 4.81437e-08, global = 1.94803e-09, cumulative = -3.76289e-09
GAMG:  Solving for p, Initial residual = 0.000598832, Final residual = 3.83459e-07, No Iterations 6
time step continuity errors : sum local = 5.77207e-11, global = 1.16083e-12, cumulative = -3.76173e-09
smoothSolver:  Solving for T, Initial residual = 0.0155354, Final residual = 2.13851e-06, No Iterations 4
ExecutionTime = 4.75 s  ClockTime = 4 s

Time = 0.125

Courant Number mean: 0.164999 max: 0.288654
smoothSolver:  Solving for Ux, Initial residual = 0.00980502, Final residual = 4.30289e-06, No Iterations 2
smoothSolver:  Solving for Uy, Initial residual = 0.0101363, Final residual = 3.63467e-06, No Iterations 2
GAMG:  Solving for p, Initial residual = 0.00421723, Final residual = 0.00030566, No Iterations 2
time step continuity errors : sum local = 4.51834e-08, global = 1.81499e-09, cumulative = -1.94673e-09
GAMG:  Solving for p, Initial residual = 0.000584988, Final residual = 3.69922e-07, No Iterations 6
time step continuity errors : sum local = 5.37979e-11, global = 1.09082e-12, cumulative = -1.94564e-09
smoothSolver:  Solving for T, Initial residual = 0.014901, Final residual = 2.05529e-06, No Iterations 4
ExecutionTime = 4.93 s  ClockTime = 5 s

Time = 0.13

Courant Number mean: 0.165093 max: 0.289815
smoothSolver:  Solving for Ux, Initial residual = 0.00926274, Final residual = 4.19221e-06, No Iterations 2
smoothSolver:  Solving for Uy, Initial residual = 0.00961038, Final residual = 3.54037e-06, No Iterations 2
GAMG:  Solving for p, Initial residual = 0.00417914, Final residual = 0.000297352, No Iterations 2
time step continuity errors : sum local = 4.24891e-08, global = 1.69364e-09, cumulative = -2.52e-10
GAMG:  Solving for p, Initial residual = 0.000572595, Final residual = 9.8087e-07, No Iterations 5
time step continuity errors : sum local = 1.37966e-10, global = 2.19484e-11, cumulative = -2.30052e-10
smoothSolver:  Solving for T, Initial residual = 0.014316, Final residual = 1.97824e-06, No Iterations 4
ExecutionTime = 5.1 s  ClockTime = 5 s

Time = 0.135

Courant Number mean: 0.165182 max: 0.290806
smoothSolver:  Solving for Ux, Initial residual = 0.00876946, Final residual = 4.0847e-06, No Iterations 2
smoothSolver:  Solving for Uy, Initial residual = 0.00913232, Final residual = 3.45218e-06, No Iterations 2
GAMG:  Solving for p, Initial residual = 0.00415079, Final residual = 0.000289674, No Iterations 2
time step continuity errors : sum local = 4.00549e-08, global = 1.60303e-09, cumulative = 1.37298e-09
GAMG:  Solving for p, Initial residual = 0.000561089, Final residual = 9.47319e-07, No Iterations 5
time step continuity errors : sum local = 1.28997e-10, global = 2.03075e-11, cumulative = 1.39328e-09
smoothSolver:  Solving for T, Initial residual = 0.013775, Final residual = 1.90672e-06, No Iterations 4
ExecutionTime = 5.28 s  ClockTime = 5 s

Time = 0.14

Courant Number mean: 0.165268 max: 0.292246
smoothSolver:  Solving for Ux, Initial residual = 0.00831925, Final residual = 3.98175e-06, No Iterations 2
smoothSolver:  Solving for Uy, Initial residual = 0.00869912, Final residual = 3.36663e-06, No Iterations 2
GAMG:  Solving for p, Initial residual = 0.00412916, Final residual = 0.000282675, No Iterations 2
time step continuity errors : sum local = 3.78563e-08, global = 1.48904e-09, cumulative = 2.88232e-09
GAMG:  Solving for p, Initial residual = 0.000550769, Final residual = 9.19992e-07, No Iterations 5
time step continuity errors : sum local = 1.21399e-10, global = 1.89069e-11, cumulative = 2.90123e-09
smoothSolver:  Solving for T, Initial residual = 0.0132727, Final residual = 1.8401e-06, No Iterations 4
ExecutionTime = 5.47 s  ClockTime = 5 s

Time = 0.145

Courant Number mean: 0.165351 max: 0.293771
smoothSolver:  Solving for Ux, Initial residual = 0.00790723, Final residual = 3.88418e-06, No Iterations 2
smoothSolver:  Solving for Uy, Initial residual = 0.00830452, Final residual = 3.29017e-06, No Iterations 2
GAMG:  Solving for p, Initial residual = 0.00411394, Final residual = 0.000276442, No Iterations 2
time step continuity errors : sum local = 3.58932e-08, global = 1.39579e-09, cumulative = 4.29702e-09
GAMG:  Solving for p, Initial residual = 0.000541233, Final residual = 8.94326e-07, No Iterations 5
time step continuity errors : sum local = 1.14471e-10, global = 1.76042e-11, cumulative = 4.31462e-09
smoothSolver:  Solving for T, Initial residual = 0.0128059, Final residual = 1.77797e-06, No Iterations 4
ExecutionTime = 5.64 s  ClockTime = 5 s

Time = 0.15

Courant Number mean: 0.16543 max: 0.295131
smoothSolver:  Solving for Ux, Initial residual = 0.00752909, Final residual = 3.79064e-06, No Iterations 2
smoothSolver:  Solving for Uy, Initial residual = 0.00794038, Final residual = 3.22284e-06, No Iterations 2
GAMG:  Solving for p, Initial residual = 0.00409139, Final residual = 0.000270011, No Iterations 2
time step continuity errors : sum local = 3.40208e-08, global = 1.30978e-09, cumulative = 5.6244e-09
GAMG:  Solving for p, Initial residual = 0.000534025, Final residual = 8.68968e-07, No Iterations 5
time step continuity errors : sum local = 1.07982e-10, global = 1.64234e-11, cumulative = 5.64083e-09
smoothSolver:  Solving for T, Initial residual = 0.0123709, Final residual = 1.7199e-06, No Iterations 4
ExecutionTime = 5.82 s  ClockTime = 6 s

Time = 0.155

Courant Number mean: 0.165507 max: 0.296333
smoothSolver:  Solving for Ux, Initial residual = 0.00718157, Final residual = 3.70197e-06, No Iterations 2
smoothSolver:  Solving for Uy, Initial residual = 0.00760563, Final residual = 3.15877e-06, No Iterations 2
GAMG:  Solving for p, Initial residual = 0.00408399, Final residual = 0.000264492, No Iterations 2
time step continuity errors : sum local = 3.23707e-08, global = 1.23027e-09, cumulative = 6.8711e-09
GAMG:  Solving for p, Initial residual = 0.000527645, Final residual = 8.47447e-07, No Iterations 5
time step continuity errors : sum local = 1.02346e-10, global = 1.53587e-11, cumulative = 6.88646e-09
smoothSolver:  Solving for T, Initial residual = 0.0119646, Final residual = 1.6655e-06, No Iterations 4
ExecutionTime = 6 s  ClockTime = 6 s

Time = 0.16

Courant Number mean: 0.16558 max: 0.297385
smoothSolver:  Solving for Ux, Initial residual = 0.00686144, Final residual = 3.61657e-06, No Iterations 2
smoothSolver:  Solving for Uy, Initial residual = 0.0073001, Final residual = 3.09731e-06, No Iterations 2
GAMG:  Solving for p, Initial residual = 0.00404035, Final residual = 0.000259255, No Iterations 2
time step continuity errors : sum local = 3.08527e-08, global = 1.15634e-09, cumulative = 8.04279e-09
GAMG:  Solving for p, Initial residual = 0.000519834, Final residual = 8.28446e-07, No Iterations 5
time step continuity errors : sum local = 9.73393e-11, global = 1.43873e-11, cumulative = 8.05718e-09
smoothSolver:  Solving for T, Initial residual = 0.0115842, Final residual = 1.61444e-06, No Iterations 4
ExecutionTime = 6.17 s  ClockTime = 6 s

Time = 0.165

Courant Number mean: 0.165652 max: 0.298296
smoothSolver:  Solving for Ux, Initial residual = 0.00656627, Final residual = 3.53361e-06, No Iterations 2
smoothSolver:  Solving for Uy, Initial residual = 0.00702121, Final residual = 3.03834e-06, No Iterations 2
GAMG:  Solving for p, Initial residual = 0.00402266, Final residual = 0.000254292, No Iterations 2
time step continuity errors : sum local = 2.9453e-08, global = 1.08815e-09, cumulative = 9.14533e-09
GAMG:  Solving for p, Initial residual = 0.000514669, Final residual = 8.10213e-07, No Iterations 5
time step continuity errors : sum local = 9.26897e-11, global = 1.35043e-11, cumulative = 9.15883e-09
smoothSolver:  Solving for T, Initial residual = 0.0112273, Final residual = 1.56641e-06, No Iterations 4
ExecutionTime = 6.35 s  ClockTime = 6 s

Time = 0.17

Courant Number mean: 0.16572 max: 0.299072
smoothSolver:  Solving for Ux, Initial residual = 0.00629391, Final residual = 3.45371e-06, No Iterations 2
smoothSolver:  Solving for Uy, Initial residual = 0.00676557, Final residual = 2.98067e-06, No Iterations 2
GAMG:  Solving for p, Initial residual = 0.00400807, Final residual = 0.000249623, No Iterations 2
time step continuity errors : sum local = 2.81619e-08, global = 1.02492e-09, cumulative = 1.01838e-08
GAMG:  Solving for p, Initial residual = 0.000510188, Final residual = 7.93913e-07, No Iterations 5
time step continuity errors : sum local = 8.85053e-11, global = 1.27026e-11, cumulative = 1.01965e-08
smoothSolver:  Solving for T, Initial residual = 0.0108918, Final residual = 1.52116e-06, No Iterations 4
ExecutionTime = 6.52 s  ClockTime = 6 s

Time = 0.175

Courant Number mean: 0.165787 max: 0.299721
smoothSolver:  Solving for Ux, Initial residual = 0.006042, Final residual = 3.37712e-06, No Iterations 2
smoothSolver:  Solving for Uy, Initial residual = 0.00652705, Final residual = 2.92618e-06, No Iterations 2
GAMG:  Solving for p, Initial residual = 0.00399268, Final residual = 0.000245098, No Iterations 2
time step continuity errors : sum local = 2.69557e-08, global = 9.6612e-10, cumulative = 1.11626e-08
GAMG:  Solving for p, Initial residual = 0.000505641, Final residual = 7.79364e-07, No Iterations 5
time step continuity errors : sum local = 8.47329e-11, global = 1.19757e-11, cumulative = 1.11745e-08
smoothSolver:  Solving for T, Initial residual = 0.0105758, Final residual = 1.47844e-06, No Iterations 4
ExecutionTime = 6.7 s  ClockTime = 6 s

Time = 0.18

Courant Number mean: 0.165852 max: 0.300249
smoothSolver:  Solving for Ux, Initial residual = 0.00580866, Final residual = 3.30288e-06, No Iterations 2
smoothSolver:  Solving for Uy, Initial residual = 0.0063035, Final residual = 2.87619e-06, No Iterations 2
GAMG:  Solving for p, Initial residual = 0.00398236, Final residual = 0.000240613, No Iterations 2
time step continuity errors : sum local = 2.58156e-08, global = 9.11336e-10, cumulative = 1.20859e-08
GAMG:  Solving for p, Initial residual = 0.000502336, Final residual = 7.68497e-07, No Iterations 5
time step continuity errors : sum local = 8.15392e-11, global = 1.13333e-11, cumulative = 1.20972e-08
smoothSolver:  Solving for T, Initial residual = 0.0102777, Final residual = 1.43805e-06, No Iterations 4
ExecutionTime = 6.87 s  ClockTime = 7 s

Time = 0.185

Courant Number mean: 0.165914 max: 0.300663
smoothSolver:  Solving for Ux, Initial residual = 0.00559188, Final residual = 3.23116e-06, No Iterations 2
smoothSolver:  Solving for Uy, Initial residual = 0.00609335, Final residual = 2.83412e-06, No Iterations 2
GAMG:  Solving for p, Initial residual = 0.00397803, Final residual = 0.000236431, No Iterations 2
time step continuity errors : sum local = 2.47655e-08, global = 8.59847e-10, cumulative = 1.29571e-08
GAMG:  Solving for p, Initial residual = 0.000499331, Final residual = 7.60304e-07, No Iterations 5
time step continuity errors : sum local = 7.87895e-11, global = 1.07476e-11, cumulative = 1.29678e-08
smoothSolver:  Solving for T, Initial residual = 0.009996, Final residual = 1.39981e-06, No Iterations 4
ExecutionTime = 7.05 s  ClockTime = 7 s

Time = 0.19

Courant Number mean: 0.165975 max: 0.300968
smoothSolver:  Solving for Ux, Initial residual = 0.00538969, Final residual = 3.16142e-06, No Iterations 2
smoothSolver:  Solving for Uy, Initial residual = 0.0058993, Final residual = 2.79467e-06, No Iterations 2
GAMG:  Solving for p, Initial residual = 0.00391983, Final residual = 0.000231669, No Iterations 2
time step continuity errors : sum local = 2.37105e-08, global = 8.13028e-10, cumulative = 1.37808e-08
GAMG:  Solving for p, Initial residual = 0.00049337, Final residual = 7.44147e-07, No Iterations 5
time step continuity errors : sum local = 7.53825e-11, global = 1.0168e-11, cumulative = 1.3791e-08
smoothSolver:  Solving for T, Initial residual = 0.00972938, Final residual = 1.36354e-06, No Iterations 4
ExecutionTime = 7.22 s  ClockTime = 7 s

Time = 0.195

Courant Number mean: 0.166033 max: 0.301171
smoothSolver:  Solving for Ux, Initial residual = 0.00520096, Final residual = 3.09407e-06, No Iterations 2
smoothSolver:  Solving for Uy, Initial residual = 0.00572294, Final residual = 2.75651e-06, No Iterations 2
GAMG:  Solving for p, Initial residual = 0.00386734, Final residual = 0.000227492, No Iterations 2
time step continuity errors : sum local = 2.27673e-08, global = 7.68056e-10, cumulative = 1.45591e-08
GAMG:  Solving for p, Initial residual = 0.000489327, Final residual = 7.40209e-07, No Iterations 5
time step continuity errors : sum local = 7.33494e-11, global = 9.70486e-12, cumulative = 1.45688e-08
smoothSolver:  Solving for T, Initial residual = 0.00947666, Final residual = 1.3291e-06, No Iterations 4
ExecutionTime = 7.41 s  ClockTime = 7 s

Time = 0.2

Courant Number mean: 0.166091 max: 0.301276
smoothSolver:  Solving for Ux, Initial residual = 0.00502422, Final residual = 3.02872e-06, No Iterations 2
smoothSolver:  Solving for Uy, Initial residual = 0.00555844, Final residual = 2.71921e-06, No Iterations 2
GAMG:  Solving for p, Initial residual = 0.00388576, Final residual = 0.000223588, No Iterations 2
time step continuity errors : sum local = 2.18953e-08, global = 7.26243e-10, cumulative = 1.5295e-08
GAMG:  Solving for p, Initial residual = 0.000488076, Final residual = 7.32354e-07, No Iterations 5
time step continuity errors : sum local = 7.10345e-11, global = 9.24435e-12, cumulative = 1.53043e-08
smoothSolver:  Solving for T, Initial residual = 0.00923677, Final residual = 1.29635e-06, No Iterations 4
ExecutionTime = 7.58 s  ClockTime = 7 s

Time = 0.205

Courant Number mean: 0.166146 max: 0.30129
smoothSolver:  Solving for Ux, Initial residual = 0.00485889, Final residual = 2.96634e-06, No Iterations 2
smoothSolver:  Solving for Uy, Initial residual = 0.00540304, Final residual = 2.6823e-06, No Iterations 2
GAMG:  Solving for p, Initial residual = 0.00383966, Final residual = 0.000219553, No Iterations 2
time step continuity errors : sum local = 2.10508e-08, global = 6.86276e-10, cumulative = 1.59905e-08
GAMG:  Solving for p, Initial residual = 0.000484596, Final residual = 7.35501e-07, No Iterations 5
time step continuity errors : sum local = 6.98719e-11, global = 8.88267e-12, cumulative = 1.59994e-08
smoothSolver:  Solving for T, Initial residual = 0.00900877, Final residual = 1.26518e-06, No Iterations 4
ExecutionTime = 7.76 s  ClockTime = 7 s

Time = 0.21

Courant Number mean: 0.1662 max: 0.301217
smoothSolver:  Solving for Ux, Initial residual = 0.00470382, Final residual = 2.90739e-06, No Iterations 2
smoothSolver:  Solving for Uy, Initial residual = 0.00525628, Final residual = 2.64638e-06, No Iterations 2
GAMG:  Solving for p, Initial residual = 0.00384442, Final residual = 0.000216016, No Iterations 2
time step continuity errors : sum local = 2.02925e-08, global = 6.49033e-10, cumulative = 1.66484e-08
GAMG:  Solving for p, Initial residual = 0.00048323, Final residual = 7.34144e-07, No Iterations 5
time step continuity errors : sum local = 6.83573e-11, global = 8.52573e-12, cumulative = 1.6657e-08
smoothSolver:  Solving for T, Initial residual = 0.00879178, Final residual = 1.23546e-06, No Iterations 4
ExecutionTime = 7.94 s  ClockTime = 8 s

Time = 0.215

Courant Number mean: 0.166253 max: 0.30153
smoothSolver:  Solving for Ux, Initial residual = 0.004558, Final residual = 2.85162e-06, No Iterations 2
smoothSolver:  Solving for Uy, Initial residual = 0.00511831, Final residual = 2.61299e-06, No Iterations 2
GAMG:  Solving for p, Initial residual = 0.0038489, Final residual = 0.000211399, No Iterations 2
time step continuity errors : sum local = 1.94686e-08, global = 6.14546e-10, cumulative = 1.72715e-08
GAMG:  Solving for p, Initial residual = 0.000482759, Final residual = 7.36976e-07, No Iterations 5
time step continuity errors : sum local = 6.72913e-11, global = 8.23312e-12, cumulative = 1.72798e-08
smoothSolver:  Solving for T, Initial residual = 0.00858503, Final residual = 1.2071e-06, No Iterations 4
ExecutionTime = 8.11 s  ClockTime = 8 s

Time = 0.22

Courant Number mean: 0.166304 max: 0.301978
smoothSolver:  Solving for Ux, Initial residual = 0.00442067, Final residual = 2.80039e-06, No Iterations 2
smoothSolver:  Solving for Uy, Initial residual = 0.00498918, Final residual = 2.58296e-06, No Iterations 2
GAMG:  Solving for p, Initial residual = 0.0037975, Final residual = 0.000207927, No Iterations 2
time step continuity errors : sum local = 1.87833e-08, global = 5.81009e-10, cumulative = 1.78608e-08
GAMG:  Solving for p, Initial residual = 0.000479508, Final residual = 7.3964e-07, No Iterations 5
time step continuity errors : sum local = 6.62669e-11, global = 7.91769e-12, cumulative = 1.78687e-08
smoothSolver:  Solving for T, Initial residual = 0.00838781, Final residual = 1.18001e-06, No Iterations 4
ExecutionTime = 8.29 s  ClockTime = 8 s

Time = 0.225

Courant Number mean: 0.166354 max: 0.302337
smoothSolver:  Solving for Ux, Initial residual = 0.00429124, Final residual = 2.75126e-06, No Iterations 2
smoothSolver:  Solving for Uy, Initial residual = 0.00486659, Final residual = 2.55823e-06, No Iterations 2
GAMG:  Solving for p, Initial residual = 0.00378031, Final residual = 0.00020447, No Iterations 2
time step continuity errors : sum local = 1.81279e-08, global = 5.49356e-10, cumulative = 1.8418e-08
GAMG:  Solving for p, Initial residual = 0.000478077, Final residual = 7.44769e-07, No Iterations 5
time step continuity errors : sum local = 6.55044e-11, global = 7.62563e-12, cumulative = 1.84257e-08
smoothSolver:  Solving for T, Initial residual = 0.00819948, Final residual = 1.15411e-06, No Iterations 4
ExecutionTime = 8.46 s  ClockTime = 8 s

Time = 0.23

Courant Number mean: 0.166403 max: 0.30261
smoothSolver:  Solving for Ux, Initial residual = 0.00416945, Final residual = 2.70394e-06, No Iterations 2
smoothSolver:  Solving for Uy, Initial residual = 0.00475235, Final residual = 2.53472e-06, No Iterations 2
GAMG:  Solving for p, Initial residual = 0.00376938, Final residual = 0.000201214, No Iterations 2
time step continuity errors : sum local = 1.75175e-08, global = 1.26266e-09, cumulative = 1.96883e-08
GAMG:  Solving for p, Initial residual = 0.000475198, Final residual = 5.15541e-07, No Iterations 5
time step continuity errors : sum local = 4.47003e-11, global = 5.21942e-12, cumulative = 1.96935e-08
smoothSolver:  Solving for T, Initial residual = 0.00801944, Final residual = 1.12931e-06, No Iterations 4
ExecutionTime = 8.64 s  ClockTime = 8 s

Time = 0.235

Courant Number mean: 0.166451 max: 0.302801
smoothSolver:  Solving for Ux, Initial residual = 0.0040544, Final residual = 2.65838e-06, No Iterations 2
smoothSolver:  Solving for Uy, Initial residual = 0.00464524, Final residual = 2.51123e-06, No Iterations 2
GAMG:  Solving for p, Initial residual = 0.00375933, Final residual = 0.000198593, No Iterations 2
time step continuity errors : sum local = 1.69788e-08, global = 1.11157e-09, cumulative = 2.08051e-08
GAMG:  Solving for p, Initial residual = 0.00047479, Final residual = 5.28538e-07, No Iterations 5
time step continuity errors : sum local = 4.50176e-11, global = 5.78124e-12, cumulative = 2.08109e-08
smoothSolver:  Solving for T, Initial residual = 0.00784716, Final residual = 1.10556e-06, No Iterations 4
ExecutionTime = 8.82 s  ClockTime = 9 s

Time = 0.24

Courant Number mean: 0.166497 max: 0.302912
smoothSolver:  Solving for Ux, Initial residual = 0.00394612, Final residual = 2.61434e-06, No Iterations 2
smoothSolver:  Solving for Uy, Initial residual = 0.00454448, Final residual = 2.48791e-06, No Iterations 2
GAMG:  Solving for p, Initial residual = 0.00375054, Final residual = 0.000195623, No Iterations 2
time step continuity errors : sum local = 1.64409e-08, global = 1.06353e-09, cumulative = 2.18744e-08
GAMG:  Solving for p, Initial residual = 0.000474515, Final residual = 5.32867e-07, No Iterations 5
time step continuity errors : sum local = 4.46205e-11, global = 6.00992e-12, cumulative = 2.18804e-08
smoothSolver:  Solving for T, Initial residual = 0.00768215, Final residual = 9.80503e-06, No Iterations 3
ExecutionTime = 8.99 s  ClockTime = 9 s

Time = 0.245

Courant Number mean: 0.166543 max: 0.302948
smoothSolver:  Solving for Ux, Initial residual = 0.00384407, Final residual = 2.57139e-06, No Iterations 2
smoothSolver:  Solving for Uy, Initial residual = 0.00445011, Final residual = 2.46422e-06, No Iterations 2
GAMG:  Solving for p, Initial residual = 0.00377919, Final residual = 0.000193184, No Iterations 2
time step continuity errors : sum local = 1.59668e-08, global = 1.00675e-09, cumulative = 2.28872e-08
GAMG:  Solving for p, Initial residual = 0.000477457, Final residual = 5.45676e-07, No Iterations 5
time step continuity errors : sum local = 4.49424e-11, global = 6.30513e-12, cumulative = 2.28935e-08
smoothSolver:  Solving for T, Initial residual = 0.00752411, Final residual = 9.60654e-06, No Iterations 3
ExecutionTime = 9.17 s  ClockTime = 9 s

Time = 0.25

Courant Number mean: 0.166588 max: 0.302912
smoothSolver:  Solving for Ux, Initial residual = 0.00374782, Final residual = 2.52994e-06, No Iterations 2
smoothSolver:  Solving for Uy, Initial residual = 0.00436015, Final residual = 2.44114e-06, No Iterations 2
GAMG:  Solving for p, Initial residual = 0.00378126, Final residual = 0.000190751, No Iterations 2
time step continuity errors : sum local = 1.55102e-08, global = 9.5487e-10, cumulative = 2.38484e-08
GAMG:  Solving for p, Initial residual = 0.000476634, Final residual = 5.58367e-07, No Iterations 5
time step continuity errors : sum local = 4.52434e-11, global = 6.49131e-12, cumulative = 2.38548e-08
smoothSolver:  Solving for T, Initial residual = 0.00737246, Final residual = 9.41589e-06, No Iterations 3
ExecutionTime = 9.35 s  ClockTime = 9 s

Time = 0.255

Courant Number mean: 0.166631 max: 0.302806
smoothSolver:  Solving for Ux, Initial residual = 0.00365662, Final residual = 2.48936e-06, No Iterations 2
smoothSolver:  Solving for Uy, Initial residual = 0.00427332, Final residual = 2.41822e-06, No Iterations 2
GAMG:  Solving for p, Initial residual = 0.00373126, Final residual = 0.000188215, No Iterations 2
time step continuity errors : sum local = 1.50624e-08, global = 9.05809e-10, cumulative = 2.47607e-08
GAMG:  Solving for p, Initial residual = 0.000474145, Final residual = 5.8434e-07, No Iterations 5
time step continuity errors : sum local = 4.66102e-11, global = 6.7277e-12, cumulative = 2.47674e-08
smoothSolver:  Solving for T, Initial residual = 0.00722673, Final residual = 9.23253e-06, No Iterations 3
ExecutionTime = 9.52 s  ClockTime = 9 s

Time = 0.26

Courant Number mean: 0.166674 max: 0.302632
smoothSolver:  Solving for Ux, Initial residual = 0.00357023, Final residual = 2.45018e-06, No Iterations 2
smoothSolver:  Solving for Uy, Initial residual = 0.00419018, Final residual = 2.39789e-06, No Iterations 2
GAMG:  Solving for p, Initial residual = 0.00371999, Final residual = 0.000186407, No Iterations 2
time step continuity errors : sum local = 1.46896e-08, global = 8.60378e-10, cumulative = 2.56278e-08
GAMG:  Solving for p, Initial residual = 0.000472745, Final residual = 6.13028e-07, No Iterations 5
time step continuity errors : sum local = 4.81566e-11, global = 6.83897e-12, cumulative = 2.56346e-08
smoothSolver:  Solving for T, Initial residual = 0.00708658, Final residual = 9.05602e-06, No Iterations 3
ExecutionTime = 9.7 s  ClockTime = 9 s

Time = 0.265

Courant Number mean: 0.166716 max: 0.302395
smoothSolver:  Solving for Ux, Initial residual = 0.00348843, Final residual = 2.4125e-06, No Iterations 2
smoothSolver:  Solving for Uy, Initial residual = 0.00411027, Final residual = 2.38287e-06, No Iterations 2
GAMG:  Solving for p, Initial residual = 0.00370508, Final residual = 0.000184813, No Iterations 2
time step continuity errors : sum local = 1.43474e-08, global = 8.16946e-10, cumulative = 2.64515e-08
GAMG:  Solving for p, Initial residual = 0.000472708, Final residual = 6.4806e-07, No Iterations 5
time step continuity errors : sum local = 5.01578e-11, global = 6.85179e-12, cumulative = 2.64584e-08
smoothSolver:  Solving for T, Initial residual = 0.00695168, Final residual = 8.88599e-06, No Iterations 3
ExecutionTime = 9.87 s  ClockTime = 10 s

Time = 0.27

Courant Number mean: 0.166757 max: 0.302097
smoothSolver:  Solving for Ux, Initial residual = 0.0034108, Final residual = 2.37589e-06, No Iterations 2
smoothSolver:  Solving for Uy, Initial residual = 0.00403711, Final residual = 2.36874e-06, No Iterations 2
GAMG:  Solving for p, Initial residual = 0.00369724, Final residual = 0.000183501, No Iterations 2
time step continuity errors : sum local = 1.40405e-08, global = 7.75842e-10, cumulative = 2.72342e-08
GAMG:  Solving for p, Initial residual = 0.000473471, Final residual = 6.89873e-07, No Iterations 5
time step continuity errors : sum local = 5.26351e-11, global = 6.73439e-12, cumulative = 2.7241e-08
smoothSolver:  Solving for T, Initial residual = 0.00682176, Final residual = 8.72211e-06, No Iterations 3
ExecutionTime = 10.05 s  ClockTime = 10 s

Time = 0.275

Courant Number mean: 0.166798 max: 0.301739
smoothSolver:  Solving for Ux, Initial residual = 0.00333685, Final residual = 2.34042e-06, No Iterations 2
smoothSolver:  Solving for Uy, Initial residual = 0.00396939, Final residual = 2.35417e-06, No Iterations 2
GAMG:  Solving for p, Initial residual = 0.00369142, Final residual = 0.000182588, No Iterations 2
time step continuity errors : sum local = 1.3775e-08, global = 7.36389e-10, cumulative = 2.79774e-08
GAMG:  Solving for p, Initial residual = 0.000473491, Final residual = 7.33374e-07, No Iterations 5
time step continuity errors : sum local = 5.51734e-11, global = 6.50237e-12, cumulative = 2.79839e-08
smoothSolver:  Solving for T, Initial residual = 0.00669661, Final residual = 8.56413e-06, No Iterations 3
ExecutionTime = 10.23 s  ClockTime = 10 s

Time = 0.28

Courant Number mean: 0.166838 max: 0.30176
smoothSolver:  Solving for Ux, Initial residual = 0.0032665, Final residual = 2.3063e-06, No Iterations 2
smoothSolver:  Solving for Uy, Initial residual = 0.003904, Final residual = 2.33883e-06, No Iterations 2
GAMG:  Solving for p, Initial residual = 0.0036976, Final residual = 0.000181851, No Iterations 2
time step continuity errors : sum local = 1.3531e-08, global = 6.99612e-10, cumulative = 2.86835e-08
GAMG:  Solving for p, Initial residual = 0.000473573, Final residual = 7.74786e-07, No Iterations 5
time step continuity errors : sum local = 5.74915e-11, global = 6.1656e-12, cumulative = 2.86896e-08
smoothSolver:  Solving for T, Initial residual = 0.00657597, Final residual = 8.41174e-06, No Iterations 3
ExecutionTime = 10.4 s  ClockTime = 10 s

Time = 0.285

Courant Number mean: 0.166877 max: 0.30189
smoothSolver:  Solving for Ux, Initial residual = 0.00319927, Final residual = 2.2737e-06, No Iterations 2
smoothSolver:  Solving for Uy, Initial residual = 0.00384117, Final residual = 2.3226e-06, No Iterations 2
GAMG:  Solving for p, Initial residual = 0.00365447, Final residual = 0.000180201, No Iterations 2
time step continuity errors : sum local = 1.32282e-08, global = 6.67159e-10, cumulative = 2.93568e-08
GAMG:  Solving for p, Initial residual = 0.000472539, Final residual = 8.15845e-07, No Iterations 5
time step continuity errors : sum local = 5.97312e-11, global = 5.63585e-12, cumulative = 2.93624e-08
smoothSolver:  Solving for T, Initial residual = 0.00645961, Final residual = 8.26465e-06, No Iterations 3
ExecutionTime = 10.58 s  ClockTime = 10 s

Time = 0.29

Courant Number mean: 0.166915 max: 0.30196
smoothSolver:  Solving for Ux, Initial residual = 0.00313499, Final residual = 2.24226e-06, No Iterations 2
smoothSolver:  Solving for Uy, Initial residual = 0.00378029, Final residual = 2.30663e-06, No Iterations 2
GAMG:  Solving for p, Initial residual = 0.00370095, Final residual = 0.000180642, No Iterations 2
time step continuity errors : sum local = 1.30872e-08, global = 6.3159e-10, cumulative = 2.9994e-08
GAMG:  Solving for p, Initial residual = 0.000475424, Final residual = 8.47043e-07, No Iterations 5
time step continuity errors : sum local = 6.12097e-11, global = 5.17172e-12, cumulative = 2.99992e-08
smoothSolver:  Solving for T, Initial residual = 0.00634729, Final residual = 8.12259e-06, No Iterations 3
ExecutionTime = 10.77 s  ClockTime = 10 s

Time = 0.295

Courant Number mean: 0.166953 max: 0.301969
smoothSolver:  Solving for Ux, Initial residual = 0.00307384, Final residual = 2.2117e-06, No Iterations 2
smoothSolver:  Solving for Uy, Initial residual = 0.00372162, Final residual = 2.29035e-06, No Iterations 2
GAMG:  Solving for p, Initial residual = 0.00364571, Final residual = 0.000179383, No Iterations 2
time step continuity errors : sum local = 1.28307e-08, global = 6.04012e-10, cumulative = 3.06032e-08
GAMG:  Solving for p, Initial residual = 0.000473099, Final residual = 8.61726e-07, No Iterations 5
time step continuity errors : sum local = 6.14863e-11, global = 4.49789e-12, cumulative = 3.06077e-08
smoothSolver:  Solving for T, Initial residual = 0.00623882, Final residual = 7.9853e-06, No Iterations 3
ExecutionTime = 10.94 s  ClockTime = 11 s

Time = 0.3

Courant Number mean: 0.16699 max: 0.301921
smoothSolver:  Solving for Ux, Initial residual = 0.00301531, Final residual = 2.18228e-06, No Iterations 2
smoothSolver:  Solving for Uy, Initial residual = 0.00366612, Final residual = 2.27539e-06, No Iterations 2
GAMG:  Solving for p, Initial residual = 0.00364555, Final residual = 0.000178426, No Iterations 2
time step continuity errors : sum local = 1.26043e-08, global = 5.75333e-10, cumulative = 3.1183e-08
GAMG:  Solving for p, Initial residual = 0.000473548, Final residual = 8.63252e-07, No Iterations 5
time step continuity errors : sum local = 6.08359e-11, global = 3.90272e-12, cumulative = 3.11869e-08
smoothSolver:  Solving for T, Initial residual = 0.006134, Final residual = 7.85256e-06, No Iterations 3
ExecutionTime = 11.11 s  ClockTime = 11 s

Time = 0.305

Courant Number mean: 0.167027 max: 0.301817
smoothSolver:  Solving for Ux, Initial residual = 0.00295939, Final residual = 2.15409e-06, No Iterations 2
smoothSolver:  Solving for Uy, Initial residual = 0.00361252, Final residual = 2.26194e-06, No Iterations 2
GAMG:  Solving for p, Initial residual = 0.00362941, Final residual = 0.000178012, No Iterations 2
time step continuity errors : sum local = 1.24229e-08, global = 5.48404e-10, cumulative = 3.17353e-08
GAMG:  Solving for p, Initial residual = 0.000472862, Final residual = 8.52296e-07, No Iterations 5
time step continuity errors : sum local = 5.93416e-11, global = 3.3721e-12, cumulative = 3.17387e-08
smoothSolver:  Solving for T, Initial residual = 0.00603265, Final residual = 7.72413e-06, No Iterations 3
ExecutionTime = 11.29 s  ClockTime = 11 s

Time = 0.31

Courant Number mean: 0.167063 max: 0.301658
smoothSolver:  Solving for Ux, Initial residual = 0.00290603, Final residual = 2.12697e-06, No Iterations 2
smoothSolver:  Solving for Uy, Initial residual = 0.00356165, Final residual = 2.25178e-06, No Iterations 2
GAMG:  Solving for p, Initial residual = 0.00362175, Final residual = 0.000177766, No Iterations 2
time step continuity errors : sum local = 1.22597e-08, global = 5.22783e-10, cumulative = 3.22615e-08
GAMG:  Solving for p, Initial residual = 0.000472765, Final residual = 8.3337e-07, No Iterations 5
time step continuity errors : sum local = 5.73467e-11, global = 2.9282e-12, cumulative = 3.22644e-08
smoothSolver:  Solving for T, Initial residual = 0.00593459, Final residual = 7.59981e-06, No Iterations 3
ExecutionTime = 11.47 s  ClockTime = 11 s

Time = 0.315

Courant Number mean: 0.167099 max: 0.301447
smoothSolver:  Solving for Ux, Initial residual = 0.00285495, Final residual = 2.1011e-06, No Iterations 2
smoothSolver:  Solving for Uy, Initial residual = 0.00351385, Final residual = 2.24227e-06, No Iterations 2
GAMG:  Solving for p, Initial residual = 0.00367197, Final residual = 0.000178914, No Iterations 2
time step continuity errors : sum local = 1.21972e-08, global = 1.74209e-10, cumulative = 3.24386e-08
GAMG:  Solving for p, Initial residual = 0.00047656, Final residual = 6.43563e-07, No Iterations 5
time step continuity errors : sum local = 4.3694e-11, global = 1.21628e-12, cumulative = 3.24399e-08
smoothSolver:  Solving for T, Initial residual = 0.00583968, Final residual = 7.47941e-06, No Iterations 3
ExecutionTime = 11.64 s  ClockTime = 11 s

Time = 0.32

Courant Number mean: 0.167135 max: 0.301184
smoothSolver:  Solving for Ux, Initial residual = 0.00280593, Final residual = 2.07676e-06, No Iterations 2
smoothSolver:  Solving for Uy, Initial residual = 0.00346791, Final residual = 2.23249e-06, No Iterations 2
GAMG:  Solving for p, Initial residual = 0.00375121, Final residual = 0.000177772, No Iterations 2
time step continuity errors : sum local = 1.19862e-08, global = 1.93353e-10, cumulative = 3.26332e-08
GAMG:  Solving for p, Initial residual = 0.000471926, Final residual = 6.18105e-07, No Iterations 5
time step continuity errors : sum local = 4.15035e-11, global = 1.06594e-12, cumulative = 3.26343e-08
smoothSolver:  Solving for T, Initial residual = 0.00574775, Final residual = 7.36275e-06, No Iterations 3
ExecutionTime = 11.81 s  ClockTime = 12 s

Time = 0.325

Courant Number mean: 0.16717 max: 0.301282
smoothSolver:  Solving for Ux, Initial residual = 0.00275896, Final residual = 2.05343e-06, No Iterations 2
smoothSolver:  Solving for Uy, Initial residual = 0.00342369, Final residual = 2.2218e-06, No Iterations 2
GAMG:  Solving for p, Initial residual = 0.00375033, Final residual = 0.000179963, No Iterations 2
time step continuity errors : sum local = 1.2001e-08, global = 1.81867e-10, cumulative = 3.28161e-08
GAMG:  Solving for p, Initial residual = 0.000475226, Final residual = 6.36725e-07, No Iterations 5
time step continuity errors : sum local = 4.22945e-11, global = 1.15634e-12, cumulative = 3.28173e-08
smoothSolver:  Solving for T, Initial residual = 0.00565868, Final residual = 7.24964e-06, No Iterations 3
ExecutionTime = 11.99 s  ClockTime = 12 s

Time = 0.33

Courant Number mean: 0.167205 max: 0.301423
smoothSolver:  Solving for Ux, Initial residual = 0.00271378, Final residual = 2.03113e-06, No Iterations 2
smoothSolver:  Solving for Uy, Initial residual = 0.00338175, Final residual = 2.21101e-06, No Iterations 2
GAMG:  Solving for p, Initial residual = 0.00363058, Final residual = 0.00017723, No Iterations 2
time step continuity errors : sum local = 1.16933e-08, global = 1.73989e-10, cumulative = 3.29913e-08
GAMG:  Solving for p, Initial residual = 0.000472483, Final residual = 6.14063e-07, No Iterations 5
time step continuity errors : sum local = 4.03626e-11, global = 1.0311e-12, cumulative = 3.29923e-08
smoothSolver:  Solving for T, Initial residual = 0.00557232, Final residual = 7.13994e-06, No Iterations 3
ExecutionTime = 12.17 s  ClockTime = 12 s

Time = 0.335

Courant Number mean: 0.167239 max: 0.301546
smoothSolver:  Solving for Ux, Initial residual = 0.00267064, Final residual = 2.00956e-06, No Iterations 2
smoothSolver:  Solving for Uy, Initial residual = 0.00334079, Final residual = 2.19992e-06, No Iterations 2
GAMG:  Solving for p, Initial residual = 0.00365092, Final residual = 0.000177377, No Iterations 2
time step continuity errors : sum local = 1.15822e-08, global = 1.65948e-10, cumulative = 3.31583e-08
GAMG:  Solving for p, Initial residual = 0.000472945, Final residual = 6.13241e-07, No Iterations 5
time step continuity errors : sum local = 3.98968e-11, global = 1.01214e-12, cumulative = 3.31593e-08
smoothSolver:  Solving for T, Initial residual = 0.00548857, Final residual = 7.03349e-06, No Iterations 3
ExecutionTime = 12.35 s  ClockTime = 12 s

Time = 0.34

Courant Number mean: 0.167274 max: 0.301653
smoothSolver:  Solving for Ux, Initial residual = 0.00262917, Final residual = 1.98862e-06, No Iterations 2
smoothSolver:  Solving for Uy, Initial residual = 0.00330061, Final residual = 2.18869e-06, No Iterations 2
GAMG:  Solving for p, Initial residual = 0.00364786, Final residual = 0.00017796, No Iterations 2
time step continuity errors : sum local = 1.15026e-08, global = 1.58206e-10, cumulative = 3.33175e-08
GAMG:  Solving for p, Initial residual = 0.000471879, Final residual = 6.16988e-07, No Iterations 5
time step continuity errors : sum local = 3.97383e-11, global = 1.03235e-12, cumulative = 3.33185e-08
smoothSolver:  Solving for T, Initial residual = 0.00540729, Final residual = 6.93015e-06, No Iterations 3
ExecutionTime = 12.52 s  ClockTime = 12 s

Time = 0.345

Courant Number mean: 0.167308 max: 0.301744
smoothSolver:  Solving for Ux, Initial residual = 0.00258939, Final residual = 1.96819e-06, No Iterations 2
smoothSolver:  Solving for Uy, Initial residual = 0.00326101, Final residual = 2.1768e-06, No Iterations 2
GAMG:  Solving for p, Initial residual = 0.00362734, Final residual = 0.000177991, No Iterations 2
time step continuity errors : sum local = 1.13904e-08, global = 1.51476e-10, cumulative = 3.347e-08
GAMG:  Solving for p, Initial residual = 0.00046998, Final residual = 6.15143e-07, No Iterations 5
time step continuity errors : sum local = 3.92309e-11, global = 1.01722e-12, cumulative = 3.3471e-08
smoothSolver:  Solving for T, Initial residual = 0.00532839, Final residual = 6.82979e-06, No Iterations 3
ExecutionTime = 12.7 s  ClockTime = 12 s

Time = 0.35

Courant Number mean: 0.167342 max: 0.30182
smoothSolver:  Solving for Ux, Initial residual = 0.00255122, Final residual = 1.94833e-06, No Iterations 2
smoothSolver:  Solving for Uy, Initial residual = 0.00322271, Final residual = 2.16587e-06, No Iterations 2
GAMG:  Solving for p, Initial residual = 0.00369867, Final residual = 0.000178561, No Iterations 2
time step continuity errors : sum local = 1.13159e-08, global = 1.45187e-10, cumulative = 3.36162e-08
GAMG:  Solving for p, Initial residual = 0.000468559, Final residual = 6.17945e-07, No Iterations 5
time step continuity errors : sum local = 3.90314e-11, global = 1.02806e-12, cumulative = 3.36172e-08
smoothSolver:  Solving for T, Initial residual = 0.00525176, Final residual = 6.73227e-06, No Iterations 3
ExecutionTime = 12.87 s  ClockTime = 13 s

Time = 0.355

Courant Number mean: 0.167375 max: 0.301881
smoothSolver:  Solving for Ux, Initial residual = 0.0025144, Final residual = 1.92899e-06, No Iterations 2
smoothSolver:  Solving for Uy, Initial residual = 0.003187, Final residual = 2.15737e-06, No Iterations 2
GAMG:  Solving for p, Initial residual = 0.00369054, Final residual = 0.000179802, No Iterations 2
time step continuity errors : sum local = 1.12865e-08, global = 1.38364e-10, cumulative = 3.37556e-08
GAMG:  Solving for p, Initial residual = 0.000469352, Final residual = 6.17804e-07, No Iterations 5
time step continuity errors : sum local = 3.86578e-11, global = 1.02734e-12, cumulative = 3.37566e-08
smoothSolver:  Solving for T, Initial residual = 0.0051773, Final residual = 6.63748e-06, No Iterations 3
ExecutionTime = 13.05 s  ClockTime = 13 s

Time = 0.36

Courant Number mean: 0.167409 max: 0.301929
smoothSolver:  Solving for Ux, Initial residual = 0.00247903, Final residual = 1.9102e-06, No Iterations 2
smoothSolver:  Solving for Uy, Initial residual = 0.00315368, Final residual = 2.14996e-06, No Iterations 2
GAMG:  Solving for p, Initial residual = 0.00380553, Final residual = 0.000182209, No Iterations 2
time step continuity errors : sum local = 1.13317e-08, global = 1.29752e-10, cumulative = 3.38864e-08
GAMG:  Solving for p, Initial residual = 0.000474181, Final residual = 6.23084e-07, No Iterations 5
time step continuity errors : sum local = 3.86333e-11, global = 1.06894e-12, cumulative = 3.38874e-08
smoothSolver:  Solving for T, Initial residual = 0.00510493, Final residual = 6.5453e-06, No Iterations 3
ExecutionTime = 13.22 s  ClockTime = 13 s

Time = 0.365

Courant Number mean: 0.167442 max: 0.301965
smoothSolver:  Solving for Ux, Initial residual = 0.00244503, Final residual = 1.89205e-06, No Iterations 2
smoothSolver:  Solving for Uy, Initial residual = 0.0031209, Final residual = 2.14245e-06, No Iterations 2
GAMG:  Solving for p, Initial residual = 0.00365439, Final residual = 0.000182061, No Iterations 2
time step continuity errors : sum local = 1.12208e-08, global = 1.01495e-10, cumulative = 3.39889e-08
GAMG:  Solving for p, Initial residual = 0.000468299, Final residual = 6.22141e-07, No Iterations 5
time step continuity errors : sum local = 3.82293e-11, global = 1.11135e-12, cumulative = 3.399e-08
smoothSolver:  Solving for T, Initial residual = 0.00503455, Final residual = 6.45564e-06, No Iterations 3
ExecutionTime = 13.4 s  ClockTime = 13 s

Time = 0.37

Courant Number mean: 0.167475 max: 0.301988
smoothSolver:  Solving for Ux, Initial residual = 0.00241226, Final residual = 1.87434e-06, No Iterations 2
smoothSolver:  Solving for Uy, Initial residual = 0.00308902, Final residual = 2.13492e-06, No Iterations 2
GAMG:  Solving for p, Initial residual = 0.00365878, Final residual = 0.000184801, No Iterations 2
time step continuity errors : sum local = 1.12909e-08, global = 3.71019e-11, cumulative = 3.40271e-08
GAMG:  Solving for p, Initial residual = 0.000467872, Final residual = 6.1957e-07, No Iterations 5
time step continuity errors : sum local = 3.7732e-11, global = 1.31963e-12, cumulative = 3.40285e-08
smoothSolver:  Solving for T, Initial residual = 0.00496609, Final residual = 6.36838e-06, No Iterations 3
ExecutionTime = 13.58 s  ClockTime = 13 s

Time = 0.375

Courant Number mean: 0.167507 max: 0.302
smoothSolver:  Solving for Ux, Initial residual = 0.00238067, Final residual = 1.85724e-06, No Iterations 2
smoothSolver:  Solving for Uy, Initial residual = 0.00305796, Final residual = 2.12709e-06, No Iterations 2
GAMG:  Solving for p, Initial residual = 0.00367318, Final residual = 0.000184046, No Iterations 2
time step continuity errors : sum local = 1.11503e-08, global = 4.10265e-11, cumulative = 3.40695e-08
GAMG:  Solving for p, Initial residual = 0.000467, Final residual = 6.14825e-07, No Iterations 5
time step continuity errors : sum local = 3.71324e-11, global = 1.34696e-12, cumulative = 3.40708e-08
smoothSolver:  Solving for T, Initial residual = 0.00489947, Final residual = 6.28343e-06, No Iterations 3
ExecutionTime = 13.75 s  ClockTime = 13 s

Time = 0.38

Courant Number mean: 0.167539 max: 0.302001
smoothSolver:  Solving for Ux, Initial residual = 0.00235022, Final residual = 1.84043e-06, No Iterations 2
smoothSolver:  Solving for Uy, Initial residual = 0.00302792, Final residual = 2.11863e-06, No Iterations 2
GAMG:  Solving for p, Initial residual = 0.00369043, Final residual = 0.000187931, No Iterations 2
time step continuity errors : sum local = 1.12906e-08, global = 3.78817e-11, cumulative = 3.41087e-08
GAMG:  Solving for p, Initial residual = 0.000466274, Final residual = 6.22189e-07, No Iterations 5
time step continuity errors : sum local = 3.72649e-11, global = 1.38876e-12, cumulative = 3.41101e-08
smoothSolver:  Solving for T, Initial residual = 0.0048346, Final residual = 6.20071e-06, No Iterations 3
ExecutionTime = 13.93 s  ClockTime = 14 s

Time = 0.385

Courant Number mean: 0.167571 max: 0.301992
smoothSolver:  Solving for Ux, Initial residual = 0.00232085, Final residual = 1.82399e-06, No Iterations 2
smoothSolver:  Solving for Uy, Initial residual = 0.00299905, Final residual = 2.10996e-06, No Iterations 2
GAMG:  Solving for p, Initial residual = 0.00368194, Final residual = 0.000189378, No Iterations 2
time step continuity errors : sum local = 1.12838e-08, global = 5.34627e-11, cumulative = 3.41636e-08
GAMG:  Solving for p, Initial residual = 0.000462261, Final residual = 6.23299e-07, No Iterations 5
time step continuity errors : sum local = 3.70326e-11, global = 1.38866e-12, cumulative = 3.4165e-08
smoothSolver:  Solving for T, Initial residual = 0.00477144, Final residual = 6.12012e-06, No Iterations 3
ExecutionTime = 14.1 s  ClockTime = 14 s

Time = 0.39

Courant Number mean: 0.167603 max: 0.301974
smoothSolver:  Solving for Ux, Initial residual = 0.00229243, Final residual = 1.80808e-06, No Iterations 2
smoothSolver:  Solving for Uy, Initial residual = 0.0029708, Final residual = 2.10058e-06, No Iterations 2
GAMG:  Solving for p, Initial residual = 0.00370394, Final residual = 0.000191337, No Iterations 2
time step continuity errors : sum local = 1.13086e-08, global = 4.79844e-11, cumulative = 3.42129e-08
GAMG:  Solving for p, Initial residual = 0.000462106, Final residual = 6.25128e-07, No Iterations 5
time step continuity errors : sum local = 3.68451e-11, global = 1.43133e-12, cumulative = 3.42144e-08
smoothSolver:  Solving for T, Initial residual = 0.0047099, Final residual = 6.04158e-06, No Iterations 3
ExecutionTime = 14.28 s  ClockTime = 14 s

Time = 0.395

Courant Number mean: 0.167634 max: 0.301947
smoothSolver:  Solving for Ux, Initial residual = 0.00226516, Final residual = 1.79252e-06, No Iterations 2
smoothSolver:  Solving for Uy, Initial residual = 0.00294296, Final residual = 2.0908e-06, No Iterations 2
GAMG:  Solving for p, Initial residual = 0.00373401, Final residual = 0.000190539, No Iterations 2
time step continuity errors : sum local = 1.1172e-08, global = 4.54961e-11, cumulative = 3.42599e-08
GAMG:  Solving for p, Initial residual = 0.000462971, Final residual = 6.16676e-07, No Iterations 5
time step continuity errors : sum local = 3.606e-11, global = 1.47289e-12, cumulative = 3.42613e-08
smoothSolver:  Solving for T, Initial residual = 0.00464993, Final residual = 5.96502e-06, No Iterations 3
ExecutionTime = 14.45 s  ClockTime = 14 s

Time = 0.4

Courant Number mean: 0.167665 max: 0.302028
smoothSolver:  Solving for Ux, Initial residual = 0.00223889, Final residual = 1.77722e-06, No Iterations 2
smoothSolver:  Solving for Uy, Initial residual = 0.00291565, Final residual = 2.08288e-06, No Iterations 2
GAMG:  Solving for p, Initial residual = 0.00375708, Final residual = 0.000198292, No Iterations 2
time step continuity errors : sum local = 1.15367e-08, global = 4.20221e-11, cumulative = 3.43034e-08
GAMG:  Solving for p, Initial residual = 0.000460067, Final residual = 6.23652e-07, No Iterations 5
time step continuity errors : sum local = 3.61934e-11, global = 1.49964e-12, cumulative = 3.43049e-08
smoothSolver:  Solving for T, Initial residual = 0.00459147, Final residual = 5.89036e-06, No Iterations 3
ExecutionTime = 14.63 s  ClockTime = 14 s

Time = 0.405

Courant Number mean: 0.167696 max: 0.302168
smoothSolver:  Solving for Ux, Initial residual = 0.00221341, Final residual = 1.7622e-06, No Iterations 2
smoothSolver:  Solving for Uy, Initial residual = 0.00288974, Final residual = 2.07728e-06, No Iterations 2
GAMG:  Solving for p, Initial residual = 0.00402508, Final residual = 0.000203426, No Iterations 2
time step continuity errors : sum local = 1.17491e-08, global = 9.42558e-11, cumulative = 3.43991e-08
GAMG:  Solving for p, Initial residual = 0.000462532, Final residual = 6.24618e-07, No Iterations 5
time step continuity errors : sum local = 3.60099e-11, global = 1.30795e-12, cumulative = 3.44004e-08
smoothSolver:  Solving for T, Initial residual = 0.00453446, Final residual = 5.81754e-06, No Iterations 3
ExecutionTime = 14.8 s  ClockTime = 15 s

Time = 0.41

Courant Number mean: 0.167727 max: 0.302296
smoothSolver:  Solving for Ux, Initial residual = 0.00218872, Final residual = 1.74747e-06, No Iterations 2
smoothSolver:  Solving for Uy, Initial residual = 0.00286552, Final residual = 2.07244e-06, No Iterations 2
GAMG:  Solving for p, Initial residual = 0.00422794, Final residual = 0.000225044, No Iterations 2
time step continuity errors : sum local = 1.29026e-08, global = 8.21908e-11, cumulative = 3.44826e-08
GAMG:  Solving for p, Initial residual = 0.000458984, Final residual = 6.88048e-07, No Iterations 5
time step continuity errors : sum local = 3.93724e-11, global = 1.63311e-12, cumulative = 3.44843e-08
smoothSolver:  Solving for T, Initial residual = 0.00447885, Final residual = 5.74648e-06, No Iterations 3
ExecutionTime = 14.98 s  ClockTime = 15 s

Time = 0.415

Courant Number mean: 0.167757 max: 0.302412
smoothSolver:  Solving for Ux, Initial residual = 0.0021649, Final residual = 1.73344e-06, No Iterations 2
smoothSolver:  Solving for Uy, Initial residual = 0.00284208, Final residual = 2.06625e-06, No Iterations 2
GAMG:  Solving for p, Initial residual = 0.00391634, Final residual = 0.000205455, No Iterations 2
time step continuity errors : sum local = 1.16925e-08, global = 8.18316e-11, cumulative = 3.45661e-08
GAMG:  Solving for p, Initial residual = 0.000457344, Final residual = 6.54555e-07, No Iterations 5
time step continuity errors : sum local = 3.71802e-11, global = 1.49107e-12, cumulative = 3.45676e-08
smoothSolver:  Solving for T, Initial residual = 0.00442459, Final residual = 5.67712e-06, No Iterations 3
ExecutionTime = 15.16 s  ClockTime = 15 s

Time = 0.42

Courant Number mean: 0.167787 max: 0.302517
smoothSolver:  Solving for Ux, Initial residual = 0.00214164, Final residual = 1.72004e-06, No Iterations 2
smoothSolver:  Solving for Uy, Initial residual = 0.00281929, Final residual = 2.06008e-06, No Iterations 2
GAMG:  Solving for p, Initial residual = 0.00392299, Final residual = 0.000206972, No Iterations 2
time step continuity errors : sum local = 1.16959e-08, global = 7.43092e-11, cumulative = 3.46419e-08
GAMG:  Solving for p, Initial residual = 0.000462163, Final residual = 6.10563e-07, No Iterations 5
time step continuity errors : sum local = 3.44453e-11, global = 1.55346e-12, cumulative = 3.46434e-08
smoothSolver:  Solving for T, Initial residual = 0.00437163, Final residual = 5.6094e-06, No Iterations 3
ExecutionTime = 15.33 s  ClockTime = 15 s

Time = 0.425

Courant Number mean: 0.167817 max: 0.302611
smoothSolver:  Solving for Ux, Initial residual = 0.00211915, Final residual = 1.70732e-06, No Iterations 2
smoothSolver:  Solving for Uy, Initial residual = 0.00279636, Final residual = 2.05343e-06, No Iterations 2
GAMG:  Solving for p, Initial residual = 0.0038806, Final residual = 0.000196121, No Iterations 2
time step continuity errors : sum local = 1.10077e-08, global = 7.44888e-11, cumulative = 3.47179e-08
GAMG:  Solving for p, Initial residual = 0.000458448, Final residual = 5.96183e-07, No Iterations 5
time step continuity errors : sum local = 3.34059e-11, global = 1.56079e-12, cumulative = 3.47195e-08
smoothSolver:  Solving for T, Initial residual = 0.00431991, Final residual = 5.54327e-06, No Iterations 3
ExecutionTime = 15.51 s  ClockTime = 15 s

Time = 0.43

Courant Number mean: 0.167847 max: 0.302695
smoothSolver:  Solving for Ux, Initial residual = 0.00209756, Final residual = 1.69505e-06, No Iterations 2
smoothSolver:  Solving for Uy, Initial residual = 0.00277369, Final residual = 2.04665e-06, No Iterations 2
GAMG:  Solving for p, Initial residual = 0.00383365, Final residual = 0.000217634, No Iterations 2
time step continuity errors : sum local = 1.2134e-08, global = 6.92731e-11, cumulative = 3.47888e-08
GAMG:  Solving for p, Initial residual = 0.000458021, Final residual = 6.41235e-07, No Iterations 5
time step continuity errors : sum local = 3.56967e-11, global = 1.65259e-12, cumulative = 3.47904e-08
smoothSolver:  Solving for T, Initial residual = 0.00426941, Final residual = 5.47866e-06, No Iterations 3
ExecutionTime = 15.69 s  ClockTime = 15 s

Time = 0.435

Courant Number mean: 0.167877 max: 0.302769
smoothSolver:  Solving for Ux, Initial residual = 0.00207653, Final residual = 1.68266e-06, No Iterations 2
smoothSolver:  Solving for Uy, Initial residual = 0.00275169, Final residual = 2.04062e-06, No Iterations 2
GAMG:  Solving for p, Initial residual = 0.00381389, Final residual = 0.000217223, No Iterations 2
time step continuity errors : sum local = 1.20318e-08, global = 6.5951e-11, cumulative = 3.48564e-08
GAMG:  Solving for p, Initial residual = 0.000455333, Final residual = 6.33747e-07, No Iterations 5
time step continuity errors : sum local = 3.50521e-11, global = 1.71427e-12, cumulative = 3.48581e-08
smoothSolver:  Solving for T, Initial residual = 0.00422008, Final residual = 5.41553e-06, No Iterations 3
ExecutionTime = 15.88 s  ClockTime = 16 s

Time = 0.44

Courant Number mean: 0.167906 max: 0.302834
smoothSolver:  Solving for Ux, Initial residual = 0.0020561, Final residual = 1.67083e-06, No Iterations 2
smoothSolver:  Solving for Uy, Initial residual = 0.00273056, Final residual = 2.03416e-06, No Iterations 2
GAMG:  Solving for p, Initial residual = 0.00368229, Final residual = 0.000207389, No Iterations 2
time step continuity errors : sum local = 1.14135e-08, global = 6.35543e-11, cumulative = 3.49216e-08
GAMG:  Solving for p, Initial residual = 0.000450274, Final residual = 6.04245e-07, No Iterations 5
time step continuity errors : sum local = 3.32054e-11, global = 1.73624e-12, cumulative = 3.49234e-08
smoothSolver:  Solving for T, Initial residual = 0.00417187, Final residual = 5.35383e-06, No Iterations 3
ExecutionTime = 16.06 s  ClockTime = 16 s

Time = 0.445

Courant Number mean: 0.167935 max: 0.302891
smoothSolver:  Solving for Ux, Initial residual = 0.00203617, Final residual = 1.65965e-06, No Iterations 2
smoothSolver:  Solving for Uy, Initial residual = 0.00271012, Final residual = 2.02685e-06, No Iterations 2
GAMG:  Solving for p, Initial residual = 0.00383438, Final residual = 0.000210901, No Iterations 2
time step continuity errors : sum local = 1.1534e-08, global = 1.4345e-10, cumulative = 3.50668e-08
GAMG:  Solving for p, Initial residual = 0.000450371, Final residual = 6.33664e-07, No Iterations 5
time step continuity errors : sum local = 3.46284e-11, global = 1.51758e-12, cumulative = 3.50683e-08
smoothSolver:  Solving for T, Initial residual = 0.00412475, Final residual = 5.2935e-06, No Iterations 3
ExecutionTime = 16.23 s  ClockTime = 16 s

Time = 0.45

Courant Number mean: 0.167964 max: 0.302939
smoothSolver:  Solving for Ux, Initial residual = 0.00201691, Final residual = 1.64871e-06, No Iterations 2
smoothSolver:  Solving for Uy, Initial residual = 0.00268993, Final residual = 2.0198e-06, No Iterations 2
GAMG:  Solving for p, Initial residual = 0.00372902, Final residual = 0.000207921, No Iterations 2
time step continuity errors : sum local = 1.13008e-08, global = 1.27461e-10, cumulative = 3.51958e-08
GAMG:  Solving for p, Initial residual = 0.000448214, Final residual = 6.32369e-07, No Iterations 5
time step continuity errors : sum local = 3.43466e-11, global = 1.66191e-12, cumulative = 3.51975e-08
smoothSolver:  Solving for T, Initial residual = 0.00407868, Final residual = 5.23451e-06, No Iterations 3
ExecutionTime = 16.41 s  ClockTime = 16 s

Time = 0.455

Courant Number mean: 0.167992 max: 0.30298
smoothSolver:  Solving for Ux, Initial residual = 0.0019981, Final residual = 1.63795e-06, No Iterations 2
smoothSolver:  Solving for Uy, Initial residual = 0.00267061, Final residual = 2.01468e-06, No Iterations 2
GAMG:  Solving for p, Initial residual = 0.00374303, Final residual = 0.000216916, No Iterations 2
time step continuity errors : sum local = 1.17185e-08, global = 1.21239e-10, cumulative = 3.53187e-08
GAMG:  Solving for p, Initial residual = 0.000447587, Final residual = 6.30013e-07, No Iterations 5
time step continuity errors : sum local = 3.40087e-11, global = 1.63557e-12, cumulative = 3.53203e-08
smoothSolver:  Solving for T, Initial residual = 0.00403363, Final residual = 5.1768e-06, No Iterations 3
ExecutionTime = 16.58 s  ClockTime = 16 s

Time = 0.46

Courant Number mean: 0.16802 max: 0.303013
smoothSolver:  Solving for Ux, Initial residual = 0.00197982, Final residual = 1.62729e-06, No Iterations 2
smoothSolver:  Solving for Uy, Initial residual = 0.00265203, Final residual = 2.01123e-06, No Iterations 2
GAMG:  Solving for p, Initial residual = 0.00367989, Final residual = 0.000211732, No Iterations 2
time step continuity errors : sum local = 1.13705e-08, global = 1.18311e-10, cumulative = 3.54387e-08
GAMG:  Solving for p, Initial residual = 0.000444359, Final residual = 6.08967e-07, No Iterations 5
time step continuity errors : sum local = 3.26819e-11, global = 1.66e-12, cumulative = 3.54403e-08
smoothSolver:  Solving for T, Initial residual = 0.00398956, Final residual = 5.12034e-06, No Iterations 3
ExecutionTime = 16.76 s  ClockTime = 16 s

Time = 0.465

Courant Number mean: 0.168048 max: 0.303039
smoothSolver:  Solving for Ux, Initial residual = 0.00196209, Final residual = 1.61689e-06, No Iterations 2
smoothSolver:  Solving for Uy, Initial residual = 0.00263368, Final residual = 2.00732e-06, No Iterations 2
GAMG:  Solving for p, Initial residual = 0.00383707, Final residual = 0.000209122, No Iterations 2
time step continuity errors : sum local = 1.11668e-08, global = 1.1458e-10, cumulative = 3.55549e-08
GAMG:  Solving for p, Initial residual = 0.000445803, Final residual = 5.88709e-07, No Iterations 5
time step continuity errors : sum local = 3.14184e-11, global = 1.5843e-12, cumulative = 3.55565e-08
smoothSolver:  Solving for T, Initial residual = 0.00394644, Final residual = 5.06509e-06, No Iterations 3
ExecutionTime = 16.94 s  ClockTime = 17 s

Time = 0.47

Courant Number mean: 0.168076 max: 0.303059
smoothSolver:  Solving for Ux, Initial residual = 0.00194471, Final residual = 1.60672e-06, No Iterations 2
smoothSolver:  Solving for Uy, Initial residual = 0.00261642, Final residual = 2.00349e-06, No Iterations 2
GAMG:  Solving for p, Initial residual = 0.00402211, Final residual = 0.000227968, No Iterations 2
time step continuity errors : sum local = 1.2105e-08, global = 1.04716e-10, cumulative = 3.56612e-08
GAMG:  Solving for p, Initial residual = 0.000449934, Final residual = 6.07917e-07, No Iterations 5
time step continuity errors : sum local = 3.22596e-11, global = 1.87889e-12, cumulative = 3.56631e-08
smoothSolver:  Solving for T, Initial residual = 0.00390425, Final residual = 5.01101e-06, No Iterations 3
ExecutionTime = 17.11 s  ClockTime = 17 s

Time = 0.475

Courant Number mean: 0.168104 max: 0.303072
smoothSolver:  Solving for Ux, Initial residual = 0.001928, Final residual = 1.59685e-06, No Iterations 2
smoothSolver:  Solving for Uy, Initial residual = 0.00259903, Final residual = 1.99821e-06, No Iterations 2
GAMG:  Solving for p, Initial residual = 0.00377264, Final residual = 0.000217908, No Iterations 2
time step continuity errors : sum local = 1.15069e-08, global = 1.05282e-10, cumulative = 3.57684e-08
GAMG:  Solving for p, Initial residual = 0.000442293, Final residual = 5.89976e-07, No Iterations 5
time step continuity errors : sum local = 3.11374e-11, global = 1.80859e-12, cumulative = 3.57702e-08
[...]
smoothSolver:  Solving for Uy, Initial residual = 0.000303188, Final residual = 6.15266e-07, No Iterations 2
GAMG:  Solving for p, Initial residual = 9.08032e-05, Final residual = 2.7596e-06, No Iterations 2
time step continuity errors : sum local = 3.33532e-10, global = -3.91327e-12, cumulative = 1.88852e-07
GAMG:  Solving for p, Initial residual = 4.31748e-05, Final residual = 5.38637e-07, No Iterations 3
time step continuity errors : sum local = 6.51515e-11, global = -4.25044e-11, cumulative = 1.88809e-07
smoothSolver:  Solving for T, Initial residual = 0.000362359, Final residual = 5.59045e-06, No Iterations 2
ExecutionTime = 427.13 s  ClockTime = 427 s

Time = 12.67

Courant Number mean: 0.187826 max: 0.306298
smoothSolver:  Solving for Ux, Initial residual = 0.000137416, Final residual = 6.01095e-06, No Iterations 1
smoothSolver:  Solving for Uy, Initial residual = 0.000303109, Final residual = 6.15262e-07, No Iterations 2
GAMG:  Solving for p, Initial residual = 9.04104e-05, Final residual = 2.75972e-06, No Iterations 2
time step continuity errors : sum local = 3.33285e-10, global = -3.97076e-12, cumulative = 1.88805e-07
GAMG:  Solving for p, Initial residual = 4.30578e-05, Final residual = 5.3821e-07, No Iterations 3
time step continuity errors : sum local = 6.50483e-11, global = -4.2466e-11, cumulative = 1.88763e-07
smoothSolver:  Solving for T, Initial residual = 0.000362861, Final residual = 5.60044e-06, No Iterations 2
ExecutionTime = 427.29 s  ClockTime = 427 s

Time = 12.675

Courant Number mean: 0.187821 max: 0.306298
smoothSolver:  Solving for Ux, Initial residual = 0.00013729, Final residual = 6.00724e-06, No Iterations 1
smoothSolver:  Solving for Uy, Initial residual = 0.000303033, Final residual = 6.15273e-07, No Iterations 2
GAMG:  Solving for p, Initial residual = 9.08901e-05, Final residual = 2.72037e-06, No Iterations 2
time step continuity errors : sum local = 3.28273e-10, global = -3.58364e-12, cumulative = 1.88759e-07
GAMG:  Solving for p, Initial residual = 4.30449e-05, Final residual = 5.38099e-07, No Iterations 3
time step continuity errors : sum local = 6.49832e-11, global = -4.24505e-11, cumulative = 1.88717e-07
smoothSolver:  Solving for T, Initial residual = 0.000363364, Final residual = 5.61036e-06, No Iterations 2
ExecutionTime = 427.46 s  ClockTime = 427 s

Time = 12.68

Courant Number mean: 0.187817 max: 0.306298
smoothSolver:  Solving for Ux, Initial residual = 0.000137164, Final residual = 6.00355e-06, No Iterations 1
smoothSolver:  Solving for Uy, Initial residual = 0.000302957, Final residual = 6.15282e-07, No Iterations 2
GAMG:  Solving for p, Initial residual = 9.20134e-05, Final residual = 2.74831e-06, No Iterations 2
time step continuity errors : sum local = 3.3138e-10, global = -3.2017e-12, cumulative = 1.88714e-07
GAMG:  Solving for p, Initial residual = 4.32002e-05, Final residual = 5.38375e-07, No Iterations 3
time step continuity errors : sum local = 6.49648e-11, global = -4.24226e-11, cumulative = 1.88671e-07
smoothSolver:  Solving for T, Initial residual = 0.000363863, Final residual = 5.62023e-06, No Iterations 2
ExecutionTime = 427.62 s  ClockTime = 427 s

Time = 12.685

Courant Number mean: 0.187812 max: 0.306298
smoothSolver:  Solving for Ux, Initial residual = 0.000137038, Final residual = 5.99986e-06, No Iterations 1
smoothSolver:  Solving for Uy, Initial residual = 0.000302881, Final residual = 6.15268e-07, No Iterations 2
GAMG:  Solving for p, Initial residual = 9.27634e-05, Final residual = 2.75473e-06, No Iterations 2
time step continuity errors : sum local = 3.3189e-10, global = -1.44565e-12, cumulative = 1.8867e-07
GAMG:  Solving for p, Initial residual = 4.33287e-05, Final residual = 5.37913e-07, No Iterations 3
time step continuity errors : sum local = 6.4857e-11, global = -4.23681e-11, cumulative = 1.88627e-07
smoothSolver:  Solving for T, Initial residual = 0.000364359, Final residual = 5.6301e-06, No Iterations 2
ExecutionTime = 427.79 s  ClockTime = 428 s

Time = 12.69

Courant Number mean: 0.187808 max: 0.306298
smoothSolver:  Solving for Ux, Initial residual = 0.000136913, Final residual = 5.99615e-06, No Iterations 1
smoothSolver:  Solving for Uy, Initial residual = 0.000302811, Final residual = 6.15284e-07, No Iterations 2
GAMG:  Solving for p, Initial residual = 9.23423e-05, Final residual = 2.74081e-06, No Iterations 2
time step continuity errors : sum local = 3.29949e-10, global = -1.35366e-12, cumulative = 1.88626e-07
GAMG:  Solving for p, Initial residual = 4.32131e-05, Final residual = 5.38022e-07, No Iterations 3
time step continuity errors : sum local = 6.4818e-11, global = -4.24058e-11, cumulative = 1.88584e-07
smoothSolver:  Solving for T, Initial residual = 0.000364851, Final residual = 5.63994e-06, No Iterations 2
ExecutionTime = 427.96 s  ClockTime = 428 s

Time = 12.695

Courant Number mean: 0.187803 max: 0.306298
smoothSolver:  Solving for Ux, Initial residual = 0.000136787, Final residual = 5.99244e-06, No Iterations 1
smoothSolver:  Solving for Uy, Initial residual = 0.000302738, Final residual = 6.15285e-07, No Iterations 2
GAMG:  Solving for p, Initial residual = 9.03158e-05, Final residual = 2.71961e-06, No Iterations 2
time step continuity errors : sum local = 3.27135e-10, global = -3.0193e-12, cumulative = 1.88581e-07
GAMG:  Solving for p, Initial residual = 4.30952e-05, Final residual = 5.37683e-07, No Iterations 3
time step continuity errors : sum local = 6.47249e-11, global = -4.22921e-11, cumulative = 1.88538e-07
smoothSolver:  Solving for T, Initial residual = 0.000365341, Final residual = 5.65006e-06, No Iterations 2
ExecutionTime = 428.13 s  ClockTime = 428 s

Time = 12.7

Courant Number mean: 0.187798 max: 0.306298
smoothSolver:  Solving for Ux, Initial residual = 0.000136661, Final residual = 5.98875e-06, No Iterations 1
smoothSolver:  Solving for Uy, Initial residual = 0.000302668, Final residual = 6.153e-07, No Iterations 2
GAMG:  Solving for p, Initial residual = 8.99245e-05, Final residual = 2.71664e-06, No Iterations 2
time step continuity errors : sum local = 3.26512e-10, global = -1.61618e-12, cumulative = 1.88537e-07
GAMG:  Solving for p, Initial residual = 4.30903e-05, Final residual = 5.38573e-07, No Iterations 3
time step continuity errors : sum local = 6.47795e-11, global = -4.23563e-11, cumulative = 1.88494e-07
smoothSolver:  Solving for T, Initial residual = 0.000365826, Final residual = 5.6603e-06, No Iterations 2
ExecutionTime = 428.29 s  ClockTime = 428 s

Time = 12.705

Courant Number mean: 0.187794 max: 0.306298
smoothSolver:  Solving for Ux, Initial residual = 0.000136536, Final residual = 5.98506e-06, No Iterations 1
smoothSolver:  Solving for Uy, Initial residual = 0.000302599, Final residual = 6.15313e-07, No Iterations 2
GAMG:  Solving for p, Initial residual = 9.02636e-05, Final residual = 2.72835e-06, No Iterations 2
time step continuity errors : sum local = 3.27653e-10, global = -2.72398e-12, cumulative = 1.88492e-07
GAMG:  Solving for p, Initial residual = 4.31008e-05, Final residual = 5.36332e-07, No Iterations 3
time step continuity errors : sum local = 6.44573e-11, global = -4.22267e-11, cumulative = 1.88449e-07
smoothSolver:  Solving for T, Initial residual = 0.000366309, Final residual = 5.67064e-06, No Iterations 2
ExecutionTime = 428.46 s  ClockTime = 428 s

Time = 12.71

Courant Number mean: 0.187789 max: 0.306298
smoothSolver:  Solving for Ux, Initial residual = 0.00013641, Final residual = 5.98137e-06, No Iterations 1
smoothSolver:  Solving for Uy, Initial residual = 0.000302533, Final residual = 6.15336e-07, No Iterations 2
GAMG:  Solving for p, Initial residual = 9.00949e-05, Final residual = 2.69734e-06, No Iterations 2
time step continuity errors : sum local = 3.23665e-10, global = -1.645e-12, cumulative = 1.88448e-07
GAMG:  Solving for p, Initial residual = 4.31162e-05, Final residual = 5.37493e-07, No Iterations 3
time step continuity errors : sum local = 6.45439e-11, global = -4.22593e-11, cumulative = 1.88405e-07
smoothSolver:  Solving for T, Initial residual = 0.000366788, Final residual = 5.68112e-06, No Iterations 2
ExecutionTime = 428.63 s  ClockTime = 428 s

Time = 12.715

Courant Number mean: 0.187785 max: 0.306298
smoothSolver:  Solving for Ux, Initial residual = 0.000136285, Final residual = 5.97768e-06, No Iterations 1
smoothSolver:  Solving for Uy, Initial residual = 0.000302468, Final residual = 6.15352e-07, No Iterations 2
GAMG:  Solving for p, Initial residual = 9.0067e-05, Final residual = 2.68722e-06, No Iterations 2
time step continuity errors : sum local = 3.22187e-10, global = -1.29771e-12, cumulative = 1.88404e-07
GAMG:  Solving for p, Initial residual = 4.31454e-05, Final residual = 5.37422e-07, No Iterations 3
time step continuity errors : sum local = 6.44823e-11, global = -4.22486e-11, cumulative = 1.88362e-07
smoothSolver:  Solving for T, Initial residual = 0.000367264, Final residual = 5.69155e-06, No Iterations 2
ExecutionTime = 428.79 s  ClockTime = 429 s

Time = 12.72

Courant Number mean: 0.18778 max: 0.306298
smoothSolver:  Solving for Ux, Initial residual = 0.00013616, Final residual = 5.974e-06, No Iterations 1
smoothSolver:  Solving for Uy, Initial residual = 0.000302404, Final residual = 6.15364e-07, No Iterations 2
GAMG:  Solving for p, Initial residual = 8.95131e-05, Final residual = 2.68949e-06, No Iterations 2
time step continuity errors : sum local = 3.22194e-10, global = -1.20823e-12, cumulative = 1.88361e-07
GAMG:  Solving for p, Initial residual = 4.31561e-05, Final residual = 5.37351e-07, No Iterations 3
time step continuity errors : sum local = 6.44205e-11, global = -4.22142e-11, cumulative = 1.88318e-07
smoothSolver:  Solving for T, Initial residual = 0.000367742, Final residual = 5.7021e-06, No Iterations 2
ExecutionTime = 428.95 s  ClockTime = 429 s

Time = 12.725

Courant Number mean: 0.187776 max: 0.306298
smoothSolver:  Solving for Ux, Initial residual = 0.000136036, Final residual = 5.97032e-06, No Iterations 1
smoothSolver:  Solving for Uy, Initial residual = 0.000302341, Final residual = 6.15379e-07, No Iterations 2
GAMG:  Solving for p, Initial residual = 8.97565e-05, Final residual = 2.69622e-06, No Iterations 2
time step continuity errors : sum local = 3.22733e-10, global = -1.07941e-12, cumulative = 1.88317e-07
GAMG:  Solving for p, Initial residual = 4.31758e-05, Final residual = 5.37413e-07, No Iterations 3
time step continuity errors : sum local = 6.43745e-11, global = -4.21675e-11, cumulative = 1.88275e-07
smoothSolver:  Solving for T, Initial residual = 0.000368225, Final residual = 5.71267e-06, No Iterations 2
ExecutionTime = 429.12 s  ClockTime = 429 s

Time = 12.73

Courant Number mean: 0.187771 max: 0.306298
smoothSolver:  Solving for Ux, Initial residual = 0.000135911, Final residual = 5.96664e-06, No Iterations 1
smoothSolver:  Solving for Uy, Initial residual = 0.000302281, Final residual = 6.15404e-07, No Iterations 2
GAMG:  Solving for p, Initial residual = 8.98267e-05, Final residual = 2.67715e-06, No Iterations 2
time step continuity errors : sum local = 3.20185e-10, global = -7.97757e-13, cumulative = 1.88274e-07
GAMG:  Solving for p, Initial residual = 4.31826e-05, Final residual = 5.36479e-07, No Iterations 3
time step continuity errors : sum local = 6.42091e-11, global = -4.20751e-11, cumulative = 1.88232e-07
smoothSolver:  Solving for T, Initial residual = 0.000368705, Final residual = 5.72335e-06, No Iterations 2
ExecutionTime = 429.28 s  ClockTime = 429 s

Time = 12.735

Courant Number mean: 0.187766 max: 0.306298
smoothSolver:  Solving for Ux, Initial residual = 0.000135786, Final residual = 5.96296e-06, No Iterations 1
smoothSolver:  Solving for Uy, Initial residual = 0.000302222, Final residual = 6.15414e-07, No Iterations 2
GAMG:  Solving for p, Initial residual = 8.9484e-05, Final residual = 2.71567e-06, No Iterations 2
time step continuity errors : sum local = 3.24522e-10, global = 1.99167e-13, cumulative = 1.88233e-07
GAMG:  Solving for p, Initial residual = 4.32159e-05, Final residual = 5.38183e-07, No Iterations 3
time step continuity errors : sum local = 6.43592e-11, global = -4.22059e-11, cumulative = 1.8819e-07
smoothSolver:  Solving for T, Initial residual = 0.000369181, Final residual = 5.73401e-06, No Iterations 2
ExecutionTime = 429.45 s  ClockTime = 429 s

Time = 12.74

Courant Number mean: 0.187762 max: 0.306298
smoothSolver:  Solving for Ux, Initial residual = 0.000135662, Final residual = 5.95928e-06, No Iterations 1
smoothSolver:  Solving for Uy, Initial residual = 0.000302165, Final residual = 6.15436e-07, No Iterations 2
GAMG:  Solving for p, Initial residual = 8.99402e-05, Final residual = 2.72868e-06, No Iterations 2
time step continuity errors : sum local = 3.25803e-10, global = 3.75479e-13, cumulative = 1.88191e-07
GAMG:  Solving for p, Initial residual = 4.32329e-05, Final residual = 5.37883e-07, No Iterations 3
time step continuity errors : sum local = 6.42693e-11, global = -4.20897e-11, cumulative = 1.88149e-07
smoothSolver:  Solving for T, Initial residual = 0.000369653, Final residual = 5.74461e-06, No Iterations 2
ExecutionTime = 429.62 s  ClockTime = 429 s

Time = 12.745

Courant Number mean: 0.187757 max: 0.306298
smoothSolver:  Solving for Ux, Initial residual = 0.000135537, Final residual = 5.95561e-06, No Iterations 1
smoothSolver:  Solving for Uy, Initial residual = 0.000302109, Final residual = 6.15458e-07, No Iterations 2
GAMG:  Solving for p, Initial residual = 9.07759e-05, Final residual = 2.66066e-06, No Iterations 2
time step continuity errors : sum local = 3.17415e-10, global = -5.09737e-13, cumulative = 1.88148e-07
GAMG:  Solving for p, Initial residual = 4.3252e-05, Final residual = 5.36343e-07, No Iterations 3
time step continuity errors : sum local = 6.40311e-11, global = -4.20931e-11, cumulative = 1.88106e-07
smoothSolver:  Solving for T, Initial residual = 0.000370121, Final residual = 5.75517e-06, No Iterations 2
ExecutionTime = 429.78 s  ClockTime = 429 s

Time = 12.75

Courant Number mean: 0.187752 max: 0.306298
smoothSolver:  Solving for Ux, Initial residual = 0.000135413, Final residual = 5.95195e-06, No Iterations 1
smoothSolver:  Solving for Uy, Initial residual = 0.000302057, Final residual = 6.15491e-07, No Iterations 2
GAMG:  Solving for p, Initial residual = 9.09104e-05, Final residual = 2.68123e-06, No Iterations 2
time step continuity errors : sum local = 3.19598e-10, global = 5.61865e-13, cumulative = 1.88107e-07
GAMG:  Solving for p, Initial residual = 4.32837e-05, Final residual = 5.36737e-07, No Iterations 3
time step continuity errors : sum local = 6.40237e-11, global = -4.20183e-11, cumulative = 1.88065e-07
smoothSolver:  Solving for T, Initial residual = 0.000370586, Final residual = 5.76589e-06, No Iterations 2
ExecutionTime = 429.95 s  ClockTime = 430 s

Time = 12.755

Courant Number mean: 0.187748 max: 0.306298
smoothSolver:  Solving for Ux, Initial residual = 0.00013529, Final residual = 5.9483e-06, No Iterations 1
smoothSolver:  Solving for Uy, Initial residual = 0.000302004, Final residual = 6.15518e-07, No Iterations 2
GAMG:  Solving for p, Initial residual = 9.01068e-05, Final residual = 2.68126e-06, No Iterations 2
time step continuity errors : sum local = 3.1933e-10, global = 7.6981e-13, cumulative = 1.88065e-07
GAMG:  Solving for p, Initial residual = 4.32863e-05, Final residual = 5.36971e-07, No Iterations 3
time step continuity errors : sum local = 6.39971e-11, global = -4.20154e-11, cumulative = 1.88023e-07
smoothSolver:  Solving for T, Initial residual = 0.000371051, Final residual = 5.77658e-06, No Iterations 2
ExecutionTime = 430.11 s  ClockTime = 430 s

Time = 12.76

Courant Number mean: 0.187743 max: 0.306298
smoothSolver:  Solving for Ux, Initial residual = 0.000135166, Final residual = 5.94465e-06, No Iterations 1
smoothSolver:  Solving for Uy, Initial residual = 0.000301952, Final residual = 6.15537e-07, No Iterations 2
GAMG:  Solving for p, Initial residual = 9.09147e-05, Final residual = 2.70039e-06, No Iterations 2
time step continuity errors : sum local = 3.21335e-10, global = 7.57943e-13, cumulative = 1.88024e-07
GAMG:  Solving for p, Initial residual = 4.33206e-05, Final residual = 5.37527e-07, No Iterations 3
time step continuity errors : sum local = 6.40087e-11, global = -4.19815e-11, cumulative = 1.87982e-07
smoothSolver:  Solving for T, Initial residual = 0.00037153, Final residual = 5.78736e-06, No Iterations 2
ExecutionTime = 430.28 s  ClockTime = 430 s

Time = 12.765

Courant Number mean: 0.187738 max: 0.306298
smoothSolver:  Solving for Ux, Initial residual = 0.000135042, Final residual = 5.941e-06, No Iterations 1
smoothSolver:  Solving for Uy, Initial residual = 0.000301902, Final residual = 6.15568e-07, No Iterations 2
GAMG:  Solving for p, Initial residual = 9.19291e-05, Final residual = 2.70999e-06, No Iterations 2
time step continuity errors : sum local = 3.22202e-10, global = 2.47282e-12, cumulative = 1.87985e-07
GAMG:  Solving for p, Initial residual = 4.33853e-05, Final residual = 5.38697e-07, No Iterations 3
time step continuity errors : sum local = 6.40929e-11, global = -4.20983e-11, cumulative = 1.87942e-07
smoothSolver:  Solving for T, Initial residual = 0.000372005, Final residual = 5.79814e-06, No Iterations 2
ExecutionTime = 430.45 s  ClockTime = 430 s

Time = 12.77

Courant Number mean: 0.187734 max: 0.306298
smoothSolver:  Solving for Ux, Initial residual = 0.000134919, Final residual = 5.93739e-06, No Iterations 1
smoothSolver:  Solving for Uy, Initial residual = 0.000301852, Final residual = 6.15595e-07, No Iterations 2
GAMG:  Solving for p, Initial residual = 9.17987e-05, Final residual = 2.69664e-06, No Iterations 2
time step continuity errors : sum local = 3.20339e-10, global = 1.56999e-12, cumulative = 1.87944e-07
GAMG:  Solving for p, Initial residual = 4.34578e-05, Final residual = 5.35467e-07, No Iterations 3
time step continuity errors : sum local = 6.36535e-11, global = -4.17757e-11, cumulative = 1.87902e-07
smoothSolver:  Solving for T, Initial residual = 0.000372495, Final residual = 5.80885e-06, No Iterations 2
ExecutionTime = 430.61 s  ClockTime = 430 s

Time = 12.775

Courant Number mean: 0.187729 max: 0.306298
smoothSolver:  Solving for Ux, Initial residual = 0.000134796, Final residual = 5.93376e-06, No Iterations 1
smoothSolver:  Solving for Uy, Initial residual = 0.000301803, Final residual = 6.15625e-07, No Iterations 2
GAMG:  Solving for p, Initial residual = 9.10359e-05, Final residual = 2.68906e-06, No Iterations 2
time step continuity errors : sum local = 3.19162e-10, global = 9.29876e-13, cumulative = 1.87903e-07
GAMG:  Solving for p, Initial residual = 4.34508e-05, Final residual = 5.37002e-07, No Iterations 3
time step continuity errors : sum local = 6.37806e-11, global = -4.18674e-11, cumulative = 1.87861e-07
smoothSolver:  Solving for T, Initial residual = 0.000372988, Final residual = 5.8195e-06, No Iterations 2
ExecutionTime = 430.77 s  ClockTime = 430 s

Time = 12.78

Courant Number mean: 0.187724 max: 0.306298
smoothSolver:  Solving for Ux, Initial residual = 0.000134672, Final residual = 5.93009e-06, No Iterations 1
smoothSolver:  Solving for Uy, Initial residual = 0.000301758, Final residual = 6.15664e-07, No Iterations 2
GAMG:  Solving for p, Initial residual = 9.1412e-05, Final residual = 2.68323e-06, No Iterations 2
time step continuity errors : sum local = 3.18195e-10, global = 1.90139e-12, cumulative = 1.87863e-07
GAMG:  Solving for p, Initial residual = 4.35189e-05, Final residual = 5.36876e-07, No Iterations 3
time step continuity errors : sum local = 6.37102e-11, global = -4.18436e-11, cumulative = 1.87821e-07
smoothSolver:  Solving for T, Initial residual = 0.000373486, Final residual = 5.83009e-06, No Iterations 2
ExecutionTime = 430.94 s  ClockTime = 431 s

Time = 12.785

Courant Number mean: 0.18772 max: 0.306298
