/*---------------------------------------------------------------------------*\
| =========                 |                                                 |
| \\      /  F ield         | OpenFOAM: The Open Source CFD Toolbox           |
|  \\    /   O peration     | Version:  2312                                  |
|   \\  /    A nd           | Website:  www.openfoam.com                      |
|    \\/     M anipulation  |                                                 |
\*---------------------------------------------------------------------------*/
Build  : _1d8f0d55f7-20231221 OPENFOAM=2312 version=v2312
Arch   : "LSB;label=32;scalar=64"
Exec   : radFoam
Date   : Jun 16 2024
Time   : 12:56:51
Host   : warxchampion
PID    : 232716
I/O    : uncollated
Case   : /home/warxchampion/Downloads/radiat_case-20240612T054542Z-001/radiat_case
nProcs : 1
trapFpe: Floating point exception trapping enabled (FOAM_SIGFPE).
fileModificationChecking : Monitoring run-time modified files using timeStampMaster (fileModificationSkew 5, maxFileModificationPolls 20)
allowSystemOperations : Allowing user-supplied system call operations

// * * * * * * * * * * * * * * * * * * * * * * * * * * * * * * * * * * * * * //
Create time

Create mesh for time = 0

No finite volume options present
Reading Temperature field

Selecting radiationModel fvDOM
Selecting absorptionEmissionModel constantAbsorptionEmission
Selecting scatterModel constantScatter
Selecting sootModel none
fvDOM : Allocated 64 rays with average orientation:
	I0 : dAve : 	(0.00756381 0.153965 7.36193e-34) : omega : 	0.19635 : d : 	(0.0490677 0.998795 6.12323e-17)
	I1 : dAve : 	(0.0226186 0.152482 7.36193e-34) : omega : 	0.19635 : d : 	(0.14673 0.989177 6.12323e-17)
	I2 : dAve : 	(0.0374556 0.149531 7.36193e-34) : omega : 	0.19635 : d : 	(0.24298 0.970031 6.12323e-17)
	I3 : dAve : 	(0.0519318 0.14514 7.36193e-34) : omega : 	0.19635 : d : 	(0.33689 0.941544 6.12323e-17)
	I4 : dAve : 	(0.0659079 0.139351 7.36193e-34) : omega : 	0.19635 : d : 	(0.427555 0.903989 6.12323e-17)
	I5 : dAve : 	(0.0792493 0.132219 7.36193e-34) : omega : 	0.19635 : d : 	(0.514103 0.857729 6.12323e-17)
	I6 : dAve : 	(0.0918274 0.123815 7.36193e-34) : omega : 	0.19635 : d : 	(0.595699 0.803208 6.12323e-17)
	I7 : dAve : 	(0.103521 0.114218 7.36193e-34) : omega : 	0.19635 : d : 	(0.671559 0.740951 6.12323e-17)
	I8 : dAve : 	(0.114218 0.103521 7.36193e-34) : omega : 	0.19635 : d : 	(0.740951 0.671559 6.12323e-17)
	I9 : dAve : 	(0.123815 0.0918274 7.36193e-34) : omega : 	0.19635 : d : 	(0.803208 0.595699 6.12323e-17)
	I10 : dAve : 	(0.132219 0.0792493 7.36193e-34) : omega : 	0.19635 : d : 	(0.857729 0.514103 6.12323e-17)
	I11 : dAve : 	(0.139351 0.0659079 7.36193e-34) : omega : 	0.19635 : d : 	(0.903989 0.427555 6.12323e-17)
	I12 : dAve : 	(0.14514 0.0519318 7.36193e-34) : omega : 	0.19635 : d : 	(0.941544 0.33689 6.12323e-17)
	I13 : dAve : 	(0.149531 0.0374556 7.36193e-34) : omega : 	0.19635 : d : 	(0.970031 0.24298 6.12323e-17)
	I14 : dAve : 	(0.152482 0.0226186 7.36193e-34) : omega : 	0.19635 : d : 	(0.989177 0.14673 6.12323e-17)
	I15 : dAve : 	(0.153965 0.00756381 7.36193e-34) : omega : 	0.19635 : d : 	(0.998795 0.0490677 6.12323e-17)
	I16 : dAve : 	(0.153965 -0.00756381 7.36193e-34) : omega : 	0.19635 : d : 	(0.998795 -0.0490677 6.12323e-17)
	I17 : dAve : 	(0.152482 -0.0226186 7.36193e-34) : omega : 	0.19635 : d : 	(0.989177 -0.14673 6.12323e-17)
	I18 : dAve : 	(0.149531 -0.0374556 7.36193e-34) : omega : 	0.19635 : d : 	(0.970031 -0.24298 6.12323e-17)
	I19 : dAve : 	(0.14514 -0.0519318 7.36193e-34) : omega : 	0.19635 : d : 	(0.941544 -0.33689 6.12323e-17)
	I20 : dAve : 	(0.139351 -0.0659079 7.36193e-34) : omega : 	0.19635 : d : 	(0.903989 -0.427555 6.12323e-17)
	I21 : dAve : 	(0.132219 -0.0792493 7.36193e-34) : omega : 	0.19635 : d : 	(0.857729 -0.514103 6.12323e-17)
	I22 : dAve : 	(0.123815 -0.0918274 7.36193e-34) : omega : 	0.19635 : d : 	(0.803208 -0.595699 6.12323e-17)
	I23 : dAve : 	(0.114218 -0.103521 7.36193e-34) : omega : 	0.19635 : d : 	(0.740951 -0.671559 6.12323e-17)
	I24 : dAve : 	(0.103521 -0.114218 7.36193e-34) : omega : 	0.19635 : d : 	(0.671559 -0.740951 6.12323e-17)
	I25 : dAve : 	(0.0918274 -0.123815 7.36193e-34) : omega : 	0.19635 : d : 	(0.595699 -0.803208 6.12323e-17)
	I26 : dAve : 	(0.0792493 -0.132219 7.36193e-34) : omega : 	0.19635 : d : 	(0.514103 -0.857729 6.12323e-17)
	I27 : dAve : 	(0.0659079 -0.139351 7.36193e-34) : omega : 	0.19635 : d : 	(0.427555 -0.903989 6.12323e-17)
	I28 : dAve : 	(0.0519318 -0.14514 7.36193e-34) : omega : 	0.19635 : d : 	(0.33689 -0.941544 6.12323e-17)
	I29 : dAve : 	(0.0374556 -0.149531 7.36193e-34) : omega : 	0.19635 : d : 	(0.24298 -0.970031 6.12323e-17)
	I30 : dAve : 	(0.0226186 -0.152482 7.36193e-34) : omega : 	0.19635 : d : 	(0.14673 -0.989177 6.12323e-17)
	I31 : dAve : 	(0.00756381 -0.153965 7.36193e-34) : omega : 	0.19635 : d : 	(0.0490677 -0.998795 6.12323e-17)
	I32 : dAve : 	(-0.00756381 -0.153965 7.36193e-34) : omega : 	0.19635 : d : 	(-0.0490677 -0.998795 6.12323e-17)
	I33 : dAve : 	(-0.0226186 -0.152482 7.36193e-34) : omega : 	0.19635 : d : 	(-0.14673 -0.989177 6.12323e-17)
	I34 : dAve : 	(-0.0374556 -0.149531 7.36193e-34) : omega : 	0.19635 : d : 	(-0.24298 -0.970031 6.12323e-17)
	I35 : dAve : 	(-0.0519318 -0.14514 7.36193e-34) : omega : 	0.19635 : d : 	(-0.33689 -0.941544 6.12323e-17)
	I36 : dAve : 	(-0.0659079 -0.139351 7.36193e-34) : omega : 	0.19635 : d : 	(-0.427555 -0.903989 6.12323e-17)
	I37 : dAve : 	(-0.0792493 -0.132219 7.36193e-34) : omega : 	0.19635 : d : 	(-0.514103 -0.857729 6.12323e-17)
	I38 : dAve : 	(-0.0918274 -0.123815 7.36193e-34) : omega : 	0.19635 : d : 	(-0.595699 -0.803208 6.12323e-17)
	I39 : dAve : 	(-0.103521 -0.114218 7.36193e-34) : omega : 	0.19635 : d : 	(-0.671559 -0.740951 6.12323e-17)
	I40 : dAve : 	(-0.114218 -0.103521 7.36193e-34) : omega : 	0.19635 : d : 	(-0.740951 -0.671559 6.12323e-17)
	I41 : dAve : 	(-0.123815 -0.0918274 7.36193e-34) : omega : 	0.19635 : d : 	(-0.803208 -0.595699 6.12323e-17)
	I42 : dAve : 	(-0.132219 -0.0792493 7.36193e-34) : omega : 	0.19635 : d : 	(-0.857729 -0.514103 6.12323e-17)
	I43 : dAve : 	(-0.139351 -0.0659079 7.36193e-34) : omega : 	0.19635 : d : 	(-0.903989 -0.427555 6.12323e-17)
	I44 : dAve : 	(-0.14514 -0.0519318 7.36193e-34) : omega : 	0.19635 : d : 	(-0.941544 -0.33689 6.12323e-17)
	I45 : dAve : 	(-0.149531 -0.0374556 7.36193e-34) : omega : 	0.19635 : d : 	(-0.970031 -0.24298 6.12323e-17)
	I46 : dAve : 	(-0.152482 -0.0226186 7.36193e-34) : omega : 	0.19635 : d : 	(-0.989177 -0.14673 6.12323e-17)
	I47 : dAve : 	(-0.153965 -0.00756381 7.36193e-34) : omega : 	0.19635 : d : 	(-0.998795 -0.0490677 6.12323e-17)
	I48 : dAve : 	(-0.153965 0.00756381 7.36193e-34) : omega : 	0.19635 : d : 	(-0.998795 0.0490677 6.12323e-17)
	I49 : dAve : 	(-0.152482 0.0226186 7.36193e-34) : omega : 	0.19635 : d : 	(-0.989177 0.14673 6.12323e-17)
	I50 : dAve : 	(-0.149531 0.0374556 7.36193e-34) : omega : 	0.19635 : d : 	(-0.970031 0.24298 6.12323e-17)
	I51 : dAve : 	(-0.14514 0.0519318 7.36193e-34) : omega : 	0.19635 : d : 	(-0.941544 0.33689 6.12323e-17)
	I52 : dAve : 	(-0.139351 0.0659079 7.36193e-34) : omega : 	0.19635 : d : 	(-0.903989 0.427555 6.12323e-17)
	I53 : dAve : 	(-0.132219 0.0792493 7.36193e-34) : omega : 	0.19635 : d : 	(-0.857729 0.514103 6.12323e-17)
	I54 : dAve : 	(-0.123815 0.0918274 7.36193e-34) : omega : 	0.19635 : d : 	(-0.803208 0.595699 6.12323e-17)
	I55 : dAve : 	(-0.114218 0.103521 7.36193e-34) : omega : 	0.19635 : d : 	(-0.740951 0.671559 6.12323e-17)
	I56 : dAve : 	(-0.103521 0.114218 7.36193e-34) : omega : 	0.19635 : d : 	(-0.671559 0.740951 6.12323e-17)
	I57 : dAve : 	(-0.0918274 0.123815 7.36193e-34) : omega : 	0.19635 : d : 	(-0.595699 0.803208 6.12323e-17)
	I58 : dAve : 	(-0.0792493 0.132219 7.36193e-34) : omega : 	0.19635 : d : 	(-0.514103 0.857729 6.12323e-17)
	I59 : dAve : 	(-0.0659079 0.139351 7.36193e-34) : omega : 	0.19635 : d : 	(-0.427555 0.903989 6.12323e-17)
	I60 : dAve : 	(-0.0519318 0.14514 7.36193e-34) : omega : 	0.19635 : d : 	(-0.33689 0.941544 6.12323e-17)
	I61 : dAve : 	(-0.0374556 0.149531 7.36193e-34) : omega : 	0.19635 : d : 	(-0.24298 0.970031 6.12323e-17)
	I62 : dAve : 	(-0.0226186 0.152482 7.36193e-34) : omega : 	0.19635 : d : 	(-0.14673 0.989177 6.12323e-17)
	I63 : dAve : 	(-0.00756381 0.153965 7.36193e-34) : omega : 	0.19635 : d : 	(-0.0490677 0.998795 6.12323e-17)
Total omega : 12.5664


SIMPLE: convergence criteria
    field G	 tolerance 0.001
    field "ILambda.*"	 tolerance 0.001


Starting time loop

Time = 0.005

Radiation solver iter: 0
Selecting boundary radiation Model: lookup
Selecting boundary radiation Model: lookup
Selecting boundary radiation Model: lookup
Selecting boundary radiation Model: lookup
DILUPBiCG:  Solving for ILambda_0_0, Initial residual = 1, Final residual = 3.09109e-16, No Iterations 1
DILUPBiCG:  Solving for ILambda_1_0, Initial residual = 1, Final residual = 4.21202e-16, No Iterations 1
DILUPBiCG:  Solving for ILambda_2_0, Initial residual = 1, Final residual = 2.98383e-16, No Iterations 1
DILUPBiCG:  Solving for ILambda_3_0, Initial residual = 1, Final residual = 5.9251e-16, No Iterations 1
DILUPBiCG:  Solving for ILambda_4_0, Initial residual = 1, Final residual = 3.30345e-16, No Iterations 1
DILUPBiCG:  Solving for ILambda_5_0, Initial residual = 1, Final residual = 2.16112e-16, No Iterations 1
DILUPBiCG:  Solving for ILambda_6_0, Initial residual = 1, Final residual = 3.95787e-16, No Iterations 1
DILUPBiCG:  Solving for ILambda_7_0, Initial residual = 1, Final residual = 3.55196e-16, No Iterations 1
DILUPBiCG:  Solving for ILambda_8_0, Initial residual = 1, Final residual = 5.0526e-16, No Iterations 1
DILUPBiCG:  Solving for ILambda_9_0, Initial residual = 1, Final residual = 2.15021e-16, No Iterations 1
DILUPBiCG:  Solving for ILambda_10_0, Initial residual = 1, Final residual = 3.29237e-16, No Iterations 1
DILUPBiCG:  Solving for ILambda_11_0, Initial residual = 1, Final residual = 2.1078e-16, No Iterations 1
DILUPBiCG:  Solving for ILambda_12_0, Initial residual = 1, Final residual = 3.60527e-16, No Iterations 1
DILUPBiCG:  Solving for ILambda_13_0, Initial residual = 1, Final residual = 3.26402e-16, No Iterations 1
DILUPBiCG:  Solving for ILambda_14_0, Initial residual = 1, Final residual = 2.46134e-16, No Iterations 1
DILUPBiCG:  Solving for ILambda_15_0, Initial residual = 1, Final residual = 2.36049e-16, No Iterations 1
DILUPBiCG:  Solving for ILambda_16_0, Initial residual = 0, Final residual = 0, No Iterations 0
DILUPBiCG:  Solving for ILambda_17_0, Initial residual = 0, Final residual = 0, No Iterations 0
DILUPBiCG:  Solving for ILambda_18_0, Initial residual = 0, Final residual = 0, No Iterations 0
DILUPBiCG:  Solving for ILambda_19_0, Initial residual = 0, Final residual = 0, No Iterations 0
DILUPBiCG:  Solving for ILambda_20_0, Initial residual = 0, Final residual = 0, No Iterations 0
DILUPBiCG:  Solving for ILambda_21_0, Initial residual = 0, Final residual = 0, No Iterations 0
DILUPBiCG:  Solving for ILambda_22_0, Initial residual = 0, Final residual = 0, No Iterations 0
DILUPBiCG:  Solving for ILambda_23_0, Initial residual = 0, Final residual = 0, No Iterations 0
DILUPBiCG:  Solving for ILambda_24_0, Initial residual = 0, Final residual = 0, No Iterations 0
DILUPBiCG:  Solving for ILambda_25_0, Initial residual = 0, Final residual = 0, No Iterations 0
DILUPBiCG:  Solving for ILambda_26_0, Initial residual = 0, Final residual = 0, No Iterations 0
DILUPBiCG:  Solving for ILambda_27_0, Initial residual = 0, Final residual = 0, No Iterations 0
DILUPBiCG:  Solving for ILambda_28_0, Initial residual = 0, Final residual = 0, No Iterations 0
DILUPBiCG:  Solving for ILambda_29_0, Initial residual = 0, Final residual = 0, No Iterations 0
DILUPBiCG:  Solving for ILambda_30_0, Initial residual = 0, Final residual = 0, No Iterations 0
DILUPBiCG:  Solving for ILambda_31_0, Initial residual = 0, Final residual = 0, No Iterations 0
DILUPBiCG:  Solving for ILambda_32_0, Initial residual = 0, Final residual = 0, No Iterations 0
DILUPBiCG:  Solving for ILambda_33_0, Initial residual = 0, Final residual = 0, No Iterations 0
DILUPBiCG:  Solving for ILambda_34_0, Initial residual = 0, Final residual = 0, No Iterations 0
DILUPBiCG:  Solving for ILambda_35_0, Initial residual = 0, Final residual = 0, No Iterations 0
DILUPBiCG:  Solving for ILambda_36_0, Initial residual = 0, Final residual = 0, No Iterations 0
DILUPBiCG:  Solving for ILambda_37_0, Initial residual = 0, Final residual = 0, No Iterations 0
DILUPBiCG:  Solving for ILambda_38_0, Initial residual = 0, Final residual = 0, No Iterations 0
DILUPBiCG:  Solving for ILambda_39_0, Initial residual = 0, Final residual = 0, No Iterations 0
DILUPBiCG:  Solving for ILambda_40_0, Initial residual = 0, Final residual = 0, No Iterations 0
DILUPBiCG:  Solving for ILambda_41_0, Initial residual = 0, Final residual = 0, No Iterations 0
DILUPBiCG:  Solving for ILambda_42_0, Initial residual = 0, Final residual = 0, No Iterations 0
DILUPBiCG:  Solving for ILambda_43_0, Initial residual = 0, Final residual = 0, No Iterations 0
DILUPBiCG:  Solving for ILambda_44_0, Initial residual = 0, Final residual = 0, No Iterations 0
DILUPBiCG:  Solving for ILambda_45_0, Initial residual = 0, Final residual = 0, No Iterations 0
DILUPBiCG:  Solving for ILambda_46_0, Initial residual = 0, Final residual = 0, No Iterations 0
DILUPBiCG:  Solving for ILambda_47_0, Initial residual = 0, Final residual = 0, No Iterations 0
DILUPBiCG:  Solving for ILambda_48_0, Initial residual = 1, Final residual = 7.25392e-07, No Iterations 5
DILUPBiCG:  Solving for ILambda_49_0, Initial residual = 1, Final residual = 5.16488e-05, No Iterations 5
DILUPBiCG:  Solving for ILambda_50_0, Initial residual = 1, Final residual = 0.000238356, No Iterations 5
DILUPBiCG:  Solving for ILambda_51_0, Initial residual = 1, Final residual = 0.000529921, No Iterations 5
DILUPBiCG:  Solving for ILambda_52_0, Initial residual = 1, Final residual = 0.000851618, No Iterations 5
DILUPBiCG:  Solving for ILambda_53_0, Initial residual = 1, Final residual = 0.00114298, No Iterations 5
DILUPBiCG:  Solving for ILambda_54_0, Initial residual = 1, Final residual = 0.00136542, No Iterations 5
DILUPBiCG:  Solving for ILambda_55_0, Initial residual = 1, Final residual = 0.00149646, No Iterations 5
DILUPBiCG:  Solving for ILambda_56_0, Initial residual = 1, Final residual = 0.00152404, No Iterations 5
DILUPBiCG:  Solving for ILambda_57_0, Initial residual = 1, Final residual = 0.00144345, No Iterations 5
DILUPBiCG:  Solving for ILambda_58_0, Initial residual = 1, Final residual = 0.00125742, No Iterations 5
DILUPBiCG:  Solving for ILambda_59_0, Initial residual = 1, Final residual = 0.000979656, No Iterations 5
DILUPBiCG:  Solving for ILambda_60_0, Initial residual = 1, Final residual = 0.000642675, No Iterations 5
DILUPBiCG:  Solving for ILambda_61_0, Initial residual = 1, Final residual = 0.000309038, No Iterations 5
DILUPBiCG:  Solving for ILambda_62_0, Initial residual = 1, Final residual = 7.33573e-05, No Iterations 5
DILUPBiCG:  Solving for ILambda_63_0, Initial residual = 1, Final residual = 1.17923e-06, No Iterations 5
Radiation solver iter: 1
DILUPBiCG:  Solving for ILambda_0_0, Initial residual = 0.23666, Final residual = 4.21475e-16, No Iterations 1
DILUPBiCG:  Solving for ILambda_1_0, Initial residual = 0.232609, Final residual = 7.91522e-17, No Iterations 1
DILUPBiCG:  Solving for ILambda_2_0, Initial residual = 0.229762, Final residual = 1.25202e-15, No Iterations 1
DILUPBiCG:  Solving for ILambda_3_0, Initial residual = 0.227186, Final residual = 2.57774e-16, No Iterations 1
DILUPBiCG:  Solving for ILambda_4_0, Initial residual = 0.225386, Final residual = 4.29028e-17, No Iterations 1
DILUPBiCG:  Solving for ILambda_5_0, Initial residual = 0.223701, Final residual = 9.47389e-16, No Iterations 1
DILUPBiCG:  Solving for ILambda_6_0, Initial residual = 0.222044, Final residual = 3.16179e-16, No Iterations 1
DILUPBiCG:  Solving for ILambda_7_0, Initial residual = 0.220061, Final residual = 5.05598e-16, No Iterations 1
DILUPBiCG:  Solving for ILambda_8_0, Initial residual = 0.218344, Final residual = 4.1742e-16, No Iterations 1
DILUPBiCG:  Solving for ILambda_9_0, Initial residual = 0.216853, Final residual = 7.68876e-17, No Iterations 1
DILUPBiCG:  Solving for ILambda_10_0, Initial residual = 0.214488, Final residual = 8.07953e-16, No Iterations 1
DILUPBiCG:  Solving for ILambda_11_0, Initial residual = 0.217673, Final residual = 2.56185e-16, No Iterations 1
DILUPBiCG:  Solving for ILambda_12_0, Initial residual = 0.227953, Final residual = 2.87131e-16, No Iterations 1
DILUPBiCG:  Solving for ILambda_13_0, Initial residual = 0.242491, Final residual = 5.32788e-16, No Iterations 1
DILUPBiCG:  Solving for ILambda_14_0, Initial residual = 0.265911, Final residual = 2.7251e-16, No Iterations 1
DILUPBiCG:  Solving for ILambda_15_0, Initial residual = 0.307133, Final residual = 5.48998e-16, No Iterations 1
DILUPBiCG:  Solving for ILambda_48_0, Initial residual = 0.307133, Final residual = 1.97817e-07, No Iterations 5
DILUPBiCG:  Solving for ILambda_49_0, Initial residual = 0.265909, Final residual = 1.32711e-05, No Iterations 5
DILUPBiCG:  Solving for ILambda_50_0, Initial residual = 0.242492, Final residual = 6.16809e-05, No Iterations 5
DILUPBiCG:  Solving for ILambda_51_0, Initial residual = 0.227957, Final residual = 0.000127234, No Iterations 5
DILUPBiCG:  Solving for ILambda_52_0, Initial residual = 0.217679, Final residual = 0.000182312, No Iterations 5
DILUPBiCG:  Solving for ILambda_53_0, Initial residual = 0.214493, Final residual = 0.000223793, No Iterations 5
DILUPBiCG:  Solving for ILambda_54_0, Initial residual = 0.216853, Final residual = 0.000255681, No Iterations 5
DILUPBiCG:  Solving for ILambda_55_0, Initial residual = 0.218337, Final residual = 0.000256678, No Iterations 5
DILUPBiCG:  Solving for ILambda_56_0, Initial residual = 0.220051, Final residual = 0.000239806, No Iterations 5
DILUPBiCG:  Solving for ILambda_57_0, Initial residual = 0.222026, Final residual = 0.000209249, No Iterations 5
DILUPBiCG:  Solving for ILambda_58_0, Initial residual = 0.223682, Final residual = 0.000164385, No Iterations 5
DILUPBiCG:  Solving for ILambda_59_0, Initial residual = 0.225369, Final residual = 0.000117509, No Iterations 5
DILUPBiCG:  Solving for ILambda_60_0, Initial residual = 0.227174, Final residual = 7.11211e-05, No Iterations 5
DILUPBiCG:  Solving for ILambda_61_0, Initial residual = 0.229755, Final residual = 3.01094e-05, No Iterations 5
DILUPBiCG:  Solving for ILambda_62_0, Initial residual = 0.232607, Final residual = 6.37142e-06, No Iterations 5
DILUPBiCG:  Solving for ILambda_63_0, Initial residual = 0.23666, Final residual = 3.4065e-07, No Iterations 5
Radiation solver iter: 2
DILUPBiCG:  Solving for ILambda_0_0, Initial residual = 0.157777, Final residual = 2.38302e-16, No Iterations 1
DILUPBiCG:  Solving for ILambda_1_0, Initial residual = 0.149835, Final residual = 7.02377e-17, No Iterations 1
DILUPBiCG:  Solving for ILambda_2_0, Initial residual = 0.145035, Final residual = 3.57227e-16, No Iterations 1
DILUPBiCG:  Solving for ILambda_3_0, Initial residual = 0.14145, Final residual = 5.52269e-17, No Iterations 1
DILUPBiCG:  Solving for ILambda_4_0, Initial residual = 0.137985, Final residual = 3.54011e-17, No Iterations 1
DILUPBiCG:  Solving for ILambda_5_0, Initial residual = 0.134796, Final residual = 8.63726e-17, No Iterations 1
DILUPBiCG:  Solving for ILambda_6_0, Initial residual = 0.13186, Final residual = 4.32176e-16, No Iterations 1
DILUPBiCG:  Solving for ILambda_7_0, Initial residual = 0.129122, Final residual = 2.8537e-16, No Iterations 1
DILUPBiCG:  Solving for ILambda_8_0, Initial residual = 0.126243, Final residual = 4.8514e-16, No Iterations 1
DILUPBiCG:  Solving for ILambda_9_0, Initial residual = 0.123394, Final residual = 4.02772e-16, No Iterations 1
DILUPBiCG:  Solving for ILambda_10_0, Initial residual = 0.120614, Final residual = 7.92867e-17, No Iterations 1
DILUPBiCG:  Solving for ILambda_11_0, Initial residual = 0.117528, Final residual = 1.51236e-16, No Iterations 1
DILUPBiCG:  Solving for ILambda_12_0, Initial residual = 0.114415, Final residual = 2.07831e-16, No Iterations 1
DILUPBiCG:  Solving for ILambda_13_0, Initial residual = 0.111166, Final residual = 3.15117e-17, No Iterations 1
DILUPBiCG:  Solving for ILambda_14_0, Initial residual = 0.114046, Final residual = 1.97524e-16, No Iterations 1
DILUPBiCG:  Solving for ILambda_15_0, Initial residual = 0.129191, Final residual = 5.08122e-17, No Iterations 1
DILUPBiCG:  Solving for ILambda_48_0, Initial residual = 0.129191, Final residual = 7.64161e-08, No Iterations 5
DILUPBiCG:  Solving for ILambda_49_0, Initial residual = 0.114045, Final residual = 5.49061e-06, No Iterations 5
DILUPBiCG:  Solving for ILambda_50_0, Initial residual = 0.111168, Final residual = 2.2725e-05, No Iterations 5
DILUPBiCG:  Solving for ILambda_51_0, Initial residual = 0.114419, Final residual = 4.86963e-05, No Iterations 5
DILUPBiCG:  Solving for ILambda_52_0, Initial residual = 0.117536, Final residual = 7.40961e-05, No Iterations 5
DILUPBiCG:  Solving for ILambda_53_0, Initial residual = 0.120622, Final residual = 8.71961e-05, No Iterations 5
DILUPBiCG:  Solving for ILambda_54_0, Initial residual = 0.123396, Final residual = 0.00010683, No Iterations 5
DILUPBiCG:  Solving for ILambda_55_0, Initial residual = 0.126243, Final residual = 0.000112884, No Iterations 5
DILUPBiCG:  Solving for ILambda_56_0, Initial residual = 0.12912, Final residual = 0.000112026, No Iterations 5
DILUPBiCG:  Solving for ILambda_57_0, Initial residual = 0.13185, Final residual = 9.91598e-05, No Iterations 5
DILUPBiCG:  Solving for ILambda_58_0, Initial residual = 0.134786, Final residual = 8.39129e-05, No Iterations 5
DILUPBiCG:  Solving for ILambda_59_0, Initial residual = 0.137977, Final residual = 0.000110469, No Iterations 5
DILUPBiCG:  Solving for ILambda_60_0, Initial residual = 0.141443, Final residual = 5.1867e-05, No Iterations 5
DILUPBiCG:  Solving for ILambda_61_0, Initial residual = 0.145031, Final residual = 1.83781e-05, No Iterations 5
DILUPBiCG:  Solving for ILambda_62_0, Initial residual = 0.149834, Final residual = 9.02816e-06, No Iterations 5
DILUPBiCG:  Solving for ILambda_63_0, Initial residual = 0.157777, Final residual = 6.58231e-08, No Iterations 5
ExecutionTime = 0.02 s  ClockTime = 0 s

Time = 0.01

Radiation solver iter: 0
DILUPBiCG:  Solving for ILambda_0_0, Initial residual = 0.134892, Final residual = 1.38564e-16, No Iterations 1
DILUPBiCG:  Solving for ILambda_1_0, Initial residual = 0.128079, Final residual = 6.02807e-17, No Iterations 1
DILUPBiCG:  Solving for ILambda_2_0, Initial residual = 0.122086, Final residual = 1.00376e-16, No Iterations 1
DILUPBiCG:  Solving for ILambda_3_0, Initial residual = 0.116773, Final residual = 3.48825e-17, No Iterations 1
DILUPBiCG:  Solving for ILambda_4_0, Initial residual = 0.111533, Final residual = 8.64411e-17, No Iterations 1
DILUPBiCG:  Solving for ILambda_5_0, Initial residual = 0.106408, Final residual = 1.13766e-16, No Iterations 1
DILUPBiCG:  Solving for ILambda_6_0, Initial residual = 0.101386, Final residual = 2.57082e-17, No Iterations 1
DILUPBiCG:  Solving for ILambda_7_0, Initial residual = 0.0959945, Final residual = 2.00383e-16, No Iterations 1
DILUPBiCG:  Solving for ILambda_8_0, Initial residual = 0.0901346, Final residual = 2.09375e-16, No Iterations 1
DILUPBiCG:  Solving for ILambda_9_0, Initial residual = 0.0876434, Final residual = 1.74583e-16, No Iterations 1
DILUPBiCG:  Solving for ILambda_10_0, Initial residual = 0.0850773, Final residual = 1.49635e-16, No Iterations 1
DILUPBiCG:  Solving for ILambda_11_0, Initial residual = 0.0826832, Final residual = 1.32945e-16, No Iterations 1
DILUPBiCG:  Solving for ILambda_12_0, Initial residual = 0.0799783, Final residual = 1.21424e-16, No Iterations 1
DILUPBiCG:  Solving for ILambda_13_0, Initial residual = 0.0769716, Final residual = 3.36055e-16, No Iterations 1
DILUPBiCG:  Solving for ILambda_14_0, Initial residual = 0.0753269, Final residual = 1.37547e-16, No Iterations 1
DILUPBiCG:  Solving for ILambda_15_0, Initial residual = 0.0735176, Final residual = 5.78814e-17, No Iterations 1
DILUPBiCG:  Solving for ILambda_16_0, Initial residual = 0, Final residual = 0, No Iterations 0
DILUPBiCG:  Solving for ILambda_17_0, Initial residual = 0, Final residual = 0, No Iterations 0
DILUPBiCG:  Solving for ILambda_18_0, Initial residual = 0, Final residual = 0, No Iterations 0
DILUPBiCG:  Solving for ILambda_19_0, Initial residual = 0, Final residual = 0, No Iterations 0
DILUPBiCG:  Solving for ILambda_20_0, Initial residual = 0, Final residual = 0, No Iterations 0
DILUPBiCG:  Solving for ILambda_21_0, Initial residual = 0, Final residual = 0, No Iterations 0
DILUPBiCG:  Solving for ILambda_22_0, Initial residual = 0, Final residual = 0, No Iterations 0
DILUPBiCG:  Solving for ILambda_23_0, Initial residual = 0, Final residual = 0, No Iterations 0
DILUPBiCG:  Solving for ILambda_24_0, Initial residual = 0, Final residual = 0, No Iterations 0
DILUPBiCG:  Solving for ILambda_25_0, Initial residual = 0, Final residual = 0, No Iterations 0
DILUPBiCG:  Solving for ILambda_26_0, Initial residual = 0, Final residual = 0, No Iterations 0
DILUPBiCG:  Solving for ILambda_27_0, Initial residual = 0, Final residual = 0, No Iterations 0
DILUPBiCG:  Solving for ILambda_28_0, Initial residual = 0, Final residual = 0, No Iterations 0
DILUPBiCG:  Solving for ILambda_29_0, Initial residual = 0, Final residual = 0, No Iterations 0
DILUPBiCG:  Solving for ILambda_30_0, Initial residual = 0, Final residual = 0, No Iterations 0
DILUPBiCG:  Solving for ILambda_31_0, Initial residual = 0, Final residual = 0, No Iterations 0
DILUPBiCG:  Solving for ILambda_32_0, Initial residual = 0, Final residual = 0, No Iterations 0
DILUPBiCG:  Solving for ILambda_33_0, Initial residual = 0, Final residual = 0, No Iterations 0
DILUPBiCG:  Solving for ILambda_34_0, Initial residual = 0, Final residual = 0, No Iterations 0
DILUPBiCG:  Solving for ILambda_35_0, Initial residual = 0, Final residual = 0, No Iterations 0
DILUPBiCG:  Solving for ILambda_36_0, Initial residual = 0, Final residual = 0, No Iterations 0
DILUPBiCG:  Solving for ILambda_37_0, Initial residual = 0, Final residual = 0, No Iterations 0
DILUPBiCG:  Solving for ILambda_38_0, Initial residual = 0, Final residual = 0, No Iterations 0
DILUPBiCG:  Solving for ILambda_39_0, Initial residual = 0, Final residual = 0, No Iterations 0
DILUPBiCG:  Solving for ILambda_40_0, Initial residual = 0, Final residual = 0, No Iterations 0
DILUPBiCG:  Solving for ILambda_41_0, Initial residual = 0, Final residual = 0, No Iterations 0
DILUPBiCG:  Solving for ILambda_42_0, Initial residual = 0, Final residual = 0, No Iterations 0
DILUPBiCG:  Solving for ILambda_43_0, Initial residual = 0, Final residual = 0, No Iterations 0
DILUPBiCG:  Solving for ILambda_44_0, Initial residual = 0, Final residual = 0, No Iterations 0
DILUPBiCG:  Solving for ILambda_45_0, Initial residual = 0, Final residual = 0, No Iterations 0
DILUPBiCG:  Solving for ILambda_46_0, Initial residual = 0, Final residual = 0, No Iterations 0
DILUPBiCG:  Solving for ILambda_47_0, Initial residual = 0, Final residual = 0, No Iterations 0
DILUPBiCG:  Solving for ILambda_48_0, Initial residual = 0.0735177, Final residual = 9.2362e-07, No Iterations 4
DILUPBiCG:  Solving for ILambda_49_0, Initial residual = 0.0753256, Final residual = 2.984e-06, No Iterations 5
DILUPBiCG:  Solving for ILambda_50_0, Initial residual = 0.0769724, Final residual = 1.22224e-05, No Iterations 5
DILUPBiCG:  Solving for ILambda_51_0, Initial residual = 0.0799834, Final residual = 2.91145e-05, No Iterations 5
DILUPBiCG:  Solving for ILambda_52_0, Initial residual = 0.0826891, Final residual = 4.60228e-05, No Iterations 5
DILUPBiCG:  Solving for ILambda_53_0, Initial residual = 0.0850863, Final residual = 6.02365e-05, No Iterations 5
DILUPBiCG:  Solving for ILambda_54_0, Initial residual = 0.0876494, Final residual = 6.89854e-05, No Iterations 5
DILUPBiCG:  Solving for ILambda_55_0, Initial residual = 0.0901384, Final residual = 7.06811e-05, No Iterations 5
DILUPBiCG:  Solving for ILambda_56_0, Initial residual = 0.0959963, Final residual = 7.31172e-05, No Iterations 5
DILUPBiCG:  Solving for ILambda_57_0, Initial residual = 0.101383, Final residual = 6.7723e-05, No Iterations 5
DILUPBiCG:  Solving for ILambda_58_0, Initial residual = 0.106405, Final residual = 9.12661e-05, No Iterations 5
DILUPBiCG:  Solving for ILambda_59_0, Initial residual = 0.111532, Final residual = 0.000111154, No Iterations 5
DILUPBiCG:  Solving for ILambda_60_0, Initial residual = 0.116765, Final residual = 0.000101033, No Iterations 5
DILUPBiCG:  Solving for ILambda_61_0, Initial residual = 0.122082, Final residual = 1.19089e-05, No Iterations 5
DILUPBiCG:  Solving for ILambda_62_0, Initial residual = 0.128079, Final residual = 7.71057e-05, No Iterations 5
DILUPBiCG:  Solving for ILambda_63_0, Initial residual = 0.134892, Final residual = 9.2605e-07, No Iterations 4
Radiation solver iter: 1
DILUPBiCG:  Solving for ILambda_0_0, Initial residual = 0.113557, Final residual = 5.04582e-16, No Iterations 1
DILUPBiCG:  Solving for ILambda_1_0, Initial residual = 0.104727, Final residual = 8.8023e-17, No Iterations 1
DILUPBiCG:  Solving for ILambda_2_0, Initial residual = 0.0972674, Final residual = 1.82596e-16, No Iterations 1
DILUPBiCG:  Solving for ILambda_3_0, Initial residual = 0.0917956, Final residual = 3.22906e-17, No Iterations 1
DILUPBiCG:  Solving for ILambda_4_0, Initial residual = 0.0883636, Final residual = 1.87068e-17, No Iterations 1
DILUPBiCG:  Solving for ILambda_5_0, Initial residual = 0.0852161, Final residual = 1.87062e-17, No Iterations 1
DILUPBiCG:  Solving for ILambda_6_0, Initial residual = 0.0823409, Final residual = 1.07152e-16, No Iterations 1
DILUPBiCG:  Solving for ILambda_7_0, Initial residual = 0.079427, Final residual = 2.12642e-16, No Iterations 1
DILUPBiCG:  Solving for ILambda_8_0, Initial residual = 0.0762337, Final residual = 4.74434e-17, No Iterations 1
DILUPBiCG:  Solving for ILambda_9_0, Initial residual = 0.0726975, Final residual = 7.36089e-17, No Iterations 1
DILUPBiCG:  Solving for ILambda_10_0, Initial residual = 0.068337, Final residual = 3.03292e-17, No Iterations 1
DILUPBiCG:  Solving for ILambda_11_0, Initial residual = 0.0626515, Final residual = 4.03342e-17, No Iterations 1
DILUPBiCG:  Solving for ILambda_12_0, Initial residual = 0.0602727, Final residual = 3.51332e-17, No Iterations 1
DILUPBiCG:  Solving for ILambda_13_0, Initial residual = 0.0576584, Final residual = 7.50079e-17, No Iterations 1
DILUPBiCG:  Solving for ILambda_14_0, Initial residual = 0.0560328, Final residual = 1.50509e-16, No Iterations 1
DILUPBiCG:  Solving for ILambda_15_0, Initial residual = 0.0549501, Final residual = 1.77317e-17, No Iterations 1
DILUPBiCG:  Solving for ILambda_48_0, Initial residual = 0.0549502, Final residual = 7.00179e-07, No Iterations 4
DILUPBiCG:  Solving for ILambda_49_0, Initial residual = 0.0560316, Final residual = 1.79851e-06, No Iterations 5
DILUPBiCG:  Solving for ILambda_50_0, Initial residual = 0.0576596, Final residual = 8.48168e-06, No Iterations 5
DILUPBiCG:  Solving for ILambda_51_0, Initial residual = 0.0602772, Final residual = 1.91285e-05, No Iterations 5
DILUPBiCG:  Solving for ILambda_52_0, Initial residual = 0.0626595, Final residual = 0.000139348, No Iterations 5
DILUPBiCG:  Solving for ILambda_53_0, Initial residual = 0.0683454, Final residual = 4.88718e-05, No Iterations 5
DILUPBiCG:  Solving for ILambda_54_0, Initial residual = 0.072706, Final residual = 4.93184e-05, No Iterations 5
DILUPBiCG:  Solving for ILambda_55_0, Initial residual = 0.0762387, Final residual = 5.08415e-05, No Iterations 5
DILUPBiCG:  Solving for ILambda_56_0, Initial residual = 0.0794294, Final residual = 5.06933e-05, No Iterations 5
DILUPBiCG:  Solving for ILambda_57_0, Initial residual = 0.0823393, Final residual = 4.7011e-05, No Iterations 5
DILUPBiCG:  Solving for ILambda_58_0, Initial residual = 0.085212, Final residual = 4.30095e-05, No Iterations 5
DILUPBiCG:  Solving for ILambda_59_0, Initial residual = 0.0883577, Final residual = 3.61018e-05, No Iterations 5
DILUPBiCG:  Solving for ILambda_60_0, Initial residual = 0.0917962, Final residual = 2.59442e-05, No Iterations 5
DILUPBiCG:  Solving for ILambda_61_0, Initial residual = 0.0972652, Final residual = 1.36188e-05, No Iterations 5
DILUPBiCG:  Solving for ILambda_62_0, Initial residual = 0.104731, Final residual = 1.59606e-06, No Iterations 5
DILUPBiCG:  Solving for ILambda_63_0, Initial residual = 0.113557, Final residual = 1.80154e-08, No Iterations 5
Radiation solver iter: 2
DILUPBiCG:  Solving for ILambda_0_0, Initial residual = 0.102209, Final residual = 9.09974e-17, No Iterations 1
DILUPBiCG:  Solving for ILambda_1_0, Initial residual = 0.0924751, Final residual = 2.41502e-16, No Iterations 1
DILUPBiCG:  Solving for ILambda_2_0, Initial residual = 0.0859071, Final residual = 2.73632e-16, No Iterations 1
DILUPBiCG:  Solving for ILambda_3_0, Initial residual = 0.080651, Final residual = 1.39689e-16, No Iterations 1
DILUPBiCG:  Solving for ILambda_4_0, Initial residual = 0.0761012, Final residual = 2.74578e-16, No Iterations 1
DILUPBiCG:  Solving for ILambda_5_0, Initial residual = 0.0718937, Final residual = 1.31617e-16, No Iterations 1
DILUPBiCG:  Solving for ILambda_6_0, Initial residual = 0.067764, Final residual = 1.20847e-16, No Iterations 1
DILUPBiCG:  Solving for ILambda_7_0, Initial residual = 0.0635767, Final residual = 2.18717e-16, No Iterations 1
DILUPBiCG:  Solving for ILambda_8_0, Initial residual = 0.0611667, Final residual = 1.69816e-16, No Iterations 1
DILUPBiCG:  Solving for ILambda_9_0, Initial residual = 0.0590766, Final residual = 1.33199e-16, No Iterations 1
DILUPBiCG:  Solving for ILambda_10_0, Initial residual = 0.0566921, Final residual = 2.48388e-16, No Iterations 1
DILUPBiCG:  Solving for ILambda_11_0, Initial residual = 0.0534603, Final residual = 1.36927e-17, No Iterations 1
DILUPBiCG:  Solving for ILambda_12_0, Initial residual = 0.0487918, Final residual = 8.69401e-17, No Iterations 1
DILUPBiCG:  Solving for ILambda_13_0, Initial residual = 0.0452376, Final residual = 6.26432e-17, No Iterations 1
DILUPBiCG:  Solving for ILambda_14_0, Initial residual = 0.0433806, Final residual = 7.00524e-17, No Iterations 1
DILUPBiCG:  Solving for ILambda_15_0, Initial residual = 0.0433236, Final residual = 1.06213e-16, No Iterations 1
DILUPBiCG:  Solving for ILambda_48_0, Initial residual = 0.0433236, Final residual = 5.53764e-07, No Iterations 4
DILUPBiCG:  Solving for ILambda_49_0, Initial residual = 0.0433794, Final residual = 1.73219e-06, No Iterations 5
DILUPBiCG:  Solving for ILambda_50_0, Initial residual = 0.0452391, Final residual = 9.47161e-06, No Iterations 5
DILUPBiCG:  Solving for ILambda_51_0, Initial residual = 0.0487965, Final residual = 0.00010748, No Iterations 5
DILUPBiCG:  Solving for ILambda_52_0, Initial residual = 0.0534687, Final residual = 2.25281e-05, No Iterations 5
DILUPBiCG:  Solving for ILambda_53_0, Initial residual = 0.0567002, Final residual = 2.92787e-05, No Iterations 5
DILUPBiCG:  Solving for ILambda_54_0, Initial residual = 0.0590848, Final residual = 3.15359e-05, No Iterations 5
DILUPBiCG:  Solving for ILambda_55_0, Initial residual = 0.0611726, Final residual = 3.44891e-05, No Iterations 5
DILUPBiCG:  Solving for ILambda_56_0, Initial residual = 0.0635794, Final residual = 3.50628e-05, No Iterations 5
DILUPBiCG:  Solving for ILambda_57_0, Initial residual = 0.0677633, Final residual = 3.26711e-05, No Iterations 5
DILUPBiCG:  Solving for ILambda_58_0, Initial residual = 0.0718895, Final residual = 2.87979e-05, No Iterations 5
DILUPBiCG:  Solving for ILambda_59_0, Initial residual = 0.0760968, Final residual = 2.16139e-05, No Iterations 5
DILUPBiCG:  Solving for ILambda_60_0, Initial residual = 0.080651, Final residual = 1.17195e-05, No Iterations 5
DILUPBiCG:  Solving for ILambda_61_0, Initial residual = 0.0859063, Final residual = 5.23694e-06, No Iterations 5
DILUPBiCG:  Solving for ILambda_62_0, Initial residual = 0.0924775, Final residual = 1.02776e-06, No Iterations 5
DILUPBiCG:  Solving for ILambda_63_0, Initial residual = 0.102209, Final residual = 1.50658e-08, No Iterations 5
ExecutionTime = 0.03 s  ClockTime = 0 s

Time = 0.015

Radiation solver iter: 0
DILUPBiCG:  Solving for ILambda_0_0, Initial residual = 0.0961629, Final residual = 8.63331e-17, No Iterations 1
DILUPBiCG:  Solving for ILambda_1_0, Initial residual = 0.0861236, Final residual = 8.99491e-17, No Iterations 1
DILUPBiCG:  Solving for ILambda_2_0, Initial residual = 0.0784421, Final residual = 9.72961e-17, No Iterations 1
DILUPBiCG:  Solving for ILambda_3_0, Initial residual = 0.0722357, Final residual = 1.06578e-16, No Iterations 1
DILUPBiCG:  Solving for ILambda_4_0, Initial residual = 0.0666984, Final residual = 1.3342e-16, No Iterations 1
DILUPBiCG:  Solving for ILambda_5_0, Initial residual = 0.0617219, Final residual = 9.86748e-17, No Iterations 1
DILUPBiCG:  Solving for ILambda_6_0, Initial residual = 0.0584716, Final residual = 5.53898e-17, No Iterations 1
DILUPBiCG:  Solving for ILambda_7_0, Initial residual = 0.0555647, Final residual = 5.64698e-17, No Iterations 1
DILUPBiCG:  Solving for ILambda_8_0, Initial residual = 0.0525407, Final residual = 6.53001e-17, No Iterations 1
DILUPBiCG:  Solving for ILambda_9_0, Initial residual = 0.0491702, Final residual = 1.54557e-16, No Iterations 1
DILUPBiCG:  Solving for ILambda_10_0, Initial residual = 0.0460424, Final residual = 2.87224e-17, No Iterations 1
DILUPBiCG:  Solving for ILambda_11_0, Initial residual = 0.0441192, Final residual = 1.13697e-16, No Iterations 1
DILUPBiCG:  Solving for ILambda_12_0, Initial residual = 0.0414567, Final residual = 1.16854e-16, No Iterations 1
DILUPBiCG:  Solving for ILambda_13_0, Initial residual = 0.0366986, Final residual = 1.02459e-17, No Iterations 1
DILUPBiCG:  Solving for ILambda_14_0, Initial residual = 0.0347083, Final residual = 4.93985e-17, No Iterations 1
DILUPBiCG:  Solving for ILambda_15_0, Initial residual = 0.03445, Final residual = 4.76188e-16, No Iterations 1
DILUPBiCG:  Solving for ILambda_16_0, Initial residual = 0, Final residual = 0, No Iterations 0
DILUPBiCG:  Solving for ILambda_17_0, Initial residual = 0, Final residual = 0, No Iterations 0
DILUPBiCG:  Solving for ILambda_18_0, Initial residual = 0, Final residual = 0, No Iterations 0
DILUPBiCG:  Solving for ILambda_19_0, Initial residual = 0, Final residual = 0, No Iterations 0
DILUPBiCG:  Solving for ILambda_20_0, Initial residual = 0, Final residual = 0, No Iterations 0
DILUPBiCG:  Solving for ILambda_21_0, Initial residual = 0, Final residual = 0, No Iterations 0
DILUPBiCG:  Solving for ILambda_22_0, Initial residual = 0, Final residual = 0, No Iterations 0
DILUPBiCG:  Solving for ILambda_23_0, Initial residual = 0, Final residual = 0, No Iterations 0
DILUPBiCG:  Solving for ILambda_24_0, Initial residual = 0, Final residual = 0, No Iterations 0
DILUPBiCG:  Solving for ILambda_25_0, Initial residual = 0, Final residual = 0, No Iterations 0
DILUPBiCG:  Solving for ILambda_26_0, Initial residual = 0, Final residual = 0, No Iterations 0
DILUPBiCG:  Solving for ILambda_27_0, Initial residual = 0, Final residual = 0, No Iterations 0
DILUPBiCG:  Solving for ILambda_28_0, Initial residual = 0, Final residual = 0, No Iterations 0
DILUPBiCG:  Solving for ILambda_29_0, Initial residual = 0, Final residual = 0, No Iterations 0
DILUPBiCG:  Solving for ILambda_30_0, Initial residual = 0, Final residual = 0, No Iterations 0
DILUPBiCG:  Solving for ILambda_31_0, Initial residual = 0, Final residual = 0, No Iterations 0
DILUPBiCG:  Solving for ILambda_32_0, Initial residual = 0, Final residual = 0, No Iterations 0
DILUPBiCG:  Solving for ILambda_33_0, Initial residual = 0, Final residual = 0, No Iterations 0
DILUPBiCG:  Solving for ILambda_34_0, Initial residual = 0, Final residual = 0, No Iterations 0
DILUPBiCG:  Solving for ILambda_35_0, Initial residual = 0, Final residual = 0, No Iterations 0
DILUPBiCG:  Solving for ILambda_36_0, Initial residual = 0, Final residual = 0, No Iterations 0
DILUPBiCG:  Solving for ILambda_37_0, Initial residual = 0, Final residual = 0, No Iterations 0
DILUPBiCG:  Solving for ILambda_38_0, Initial residual = 0, Final residual = 0, No Iterations 0
DILUPBiCG:  Solving for ILambda_39_0, Initial residual = 0, Final residual = 0, No Iterations 0
DILUPBiCG:  Solving for ILambda_40_0, Initial residual = 0, Final residual = 0, No Iterations 0
DILUPBiCG:  Solving for ILambda_41_0, Initial residual = 0, Final residual = 0, No Iterations 0
DILUPBiCG:  Solving for ILambda_42_0, Initial residual = 0, Final residual = 0, No Iterations 0
DILUPBiCG:  Solving for ILambda_43_0, Initial residual = 0, Final residual = 0, No Iterations 0
DILUPBiCG:  Solving for ILambda_44_0, Initial residual = 0, Final residual = 0, No Iterations 0
DILUPBiCG:  Solving for ILambda_45_0, Initial residual = 0, Final residual = 0, No Iterations 0
DILUPBiCG:  Solving for ILambda_46_0, Initial residual = 0, Final residual = 0, No Iterations 0
DILUPBiCG:  Solving for ILambda_47_0, Initial residual = 0, Final residual = 0, No Iterations 0
DILUPBiCG:  Solving for ILambda_48_0, Initial residual = 0.03445, Final residual = 3.15834e-07, No Iterations 4
DILUPBiCG:  Solving for ILambda_49_0, Initial residual = 0.0347071, Final residual = 8.48222e-07, No Iterations 5
DILUPBiCG:  Solving for ILambda_50_0, Initial residual = 0.0367001, Final residual = 4.49499e-06, No Iterations 5
DILUPBiCG:  Solving for ILambda_51_0, Initial residual = 0.0414594, Final residual = 9.96402e-06, No Iterations 5
DILUPBiCG:  Solving for ILambda_52_0, Initial residual = 0.0441274, Final residual = 1.46512e-05, No Iterations 5
DILUPBiCG:  Solving for ILambda_53_0, Initial residual = 0.0460514, Final residual = 1.92916e-05, No Iterations 5
DILUPBiCG:  Solving for ILambda_54_0, Initial residual = 0.0491778, Final residual = 2.2713e-05, No Iterations 5
DILUPBiCG:  Solving for ILambda_55_0, Initial residual = 0.0525465, Final residual = 2.45599e-05, No Iterations 5
DILUPBiCG:  Solving for ILambda_56_0, Initial residual = 0.0555679, Final residual = 2.51768e-05, No Iterations 5
DILUPBiCG:  Solving for ILambda_57_0, Initial residual = 0.0584722, Final residual = 2.42484e-05, No Iterations 5
DILUPBiCG:  Solving for ILambda_58_0, Initial residual = 0.06172, Final residual = 3.1775e-05, No Iterations 5
DILUPBiCG:  Solving for ILambda_59_0, Initial residual = 0.0666967, Final residual = 1.42812e-05, No Iterations 5
DILUPBiCG:  Solving for ILambda_60_0, Initial residual = 0.0722359, Final residual = 9.64743e-06, No Iterations 5
DILUPBiCG:  Solving for ILambda_61_0, Initial residual = 0.0784421, Final residual = 3.55183e-06, No Iterations 5
DILUPBiCG:  Solving for ILambda_62_0, Initial residual = 0.0861245, Final residual = 8.36278e-07, No Iterations 5
DILUPBiCG:  Solving for ILambda_63_0, Initial residual = 0.0961629, Final residual = 2.55021e-07, No Iterations 4
Radiation solver iter: 1
DILUPBiCG:  Solving for ILambda_0_0, Initial residual = 0.0935753, Final residual = 8.43429e-17, No Iterations 1
DILUPBiCG:  Solving for ILambda_1_0, Initial residual = 0.0812618, Final residual = 3.12639e-17, No Iterations 1
DILUPBiCG:  Solving for ILambda_2_0, Initial residual = 0.0722911, Final residual = 1.06944e-16, No Iterations 1
DILUPBiCG:  Solving for ILambda_3_0, Initial residual = 0.0655383, Final residual = 1.27565e-16, No Iterations 1
DILUPBiCG:  Solving for ILambda_4_0, Initial residual = 0.0599222, Final residual = 4.51661e-17, No Iterations 1
DILUPBiCG:  Solving for ILambda_5_0, Initial residual = 0.0558658, Final residual = 4.48779e-17, No Iterations 1
DILUPBiCG:  Solving for ILambda_6_0, Initial residual = 0.0521303, Final residual = 5.99848e-17, No Iterations 1
DILUPBiCG:  Solving for ILambda_7_0, Initial residual = 0.0484492, Final residual = 1.23762e-16, No Iterations 1
DILUPBiCG:  Solving for ILambda_8_0, Initial residual = 0.0448071, Final residual = 2.79047e-16, No Iterations 1
DILUPBiCG:  Solving for ILambda_9_0, Initial residual = 0.0424325, Final residual = 1.32267e-16, No Iterations 1
DILUPBiCG:  Solving for ILambda_10_0, Initial residual = 0.0397902, Final residual = 1.75782e-17, No Iterations 1
DILUPBiCG:  Solving for ILambda_11_0, Initial residual = 0.0363471, Final residual = 1.25455e-17, No Iterations 1
DILUPBiCG:  Solving for ILambda_12_0, Initial residual = 0.0344441, Final residual = 1.53578e-17, No Iterations 1
DILUPBiCG:  Solving for ILambda_13_0, Initial residual = 0.0315556, Final residual = 8.25501e-18, No Iterations 1
DILUPBiCG:  Solving for ILambda_14_0, Initial residual = 0.0281978, Final residual = 1.0988e-16, No Iterations 1
DILUPBiCG:  Solving for ILambda_15_0, Initial residual = 0.0270872, Final residual = 2.06942e-17, No Iterations 1
DILUPBiCG:  Solving for ILambda_48_0, Initial residual = 0.0270871, Final residual = 2.03973e-07, No Iterations 4
DILUPBiCG:  Solving for ILambda_49_0, Initial residual = 0.0281966, Final residual = 6.12784e-07, No Iterations 5
DILUPBiCG:  Solving for ILambda_50_0, Initial residual = 0.0315565, Final residual = 3.07233e-06, No Iterations 5
DILUPBiCG:  Solving for ILambda_51_0, Initial residual = 0.0344458, Final residual = 6.39318e-06, No Iterations 5
DILUPBiCG:  Solving for ILambda_52_0, Initial residual = 0.0363562, Final residual = 1.02205e-05, No Iterations 5
DILUPBiCG:  Solving for ILambda_53_0, Initial residual = 0.0397983, Final residual = 1.33823e-05, No Iterations 5
DILUPBiCG:  Solving for ILambda_54_0, Initial residual = 0.0424401, Final residual = 1.69301e-05, No Iterations 5
DILUPBiCG:  Solving for ILambda_55_0, Initial residual = 0.0448136, Final residual = 1.93979e-05, No Iterations 5
DILUPBiCG:  Solving for ILambda_56_0, Initial residual = 0.0484531, Final residual = 1.92546e-05, No Iterations 5
DILUPBiCG:  Solving for ILambda_57_0, Initial residual = 0.052132, Final residual = 1.81312e-05, No Iterations 5
DILUPBiCG:  Solving for ILambda_58_0, Initial residual = 0.055864, Final residual = 1.51003e-05, No Iterations 5
DILUPBiCG:  Solving for ILambda_59_0, Initial residual = 0.0599226, Final residual = 1.07427e-05, No Iterations 5
DILUPBiCG:  Solving for ILambda_60_0, Initial residual = 0.065539, Final residual = 6.40289e-06, No Iterations 5
DILUPBiCG:  Solving for ILambda_61_0, Initial residual = 0.0722916, Final residual = 2.81147e-06, No Iterations 5
DILUPBiCG:  Solving for ILambda_62_0, Initial residual = 0.0812619, Final residual = 8.37636e-07, No Iterations 5
DILUPBiCG:  Solving for ILambda_63_0, Initial residual = 0.0935754, Final residual = 3.78485e-07, No Iterations 4
Radiation solver iter: 2
DILUPBiCG:  Solving for ILambda_0_0, Initial residual = 0.0932029, Final residual = 9.28198e-17, No Iterations 1
DILUPBiCG:  Solving for ILambda_1_0, Initial residual = 0.0785908, Final residual = 3.42577e-17, No Iterations 1
DILUPBiCG:  Solving for ILambda_2_0, Initial residual = 0.0687362, Final residual = 7.30949e-17, No Iterations 1
DILUPBiCG:  Solving for ILambda_3_0, Initial residual = 0.0610256, Final residual = 3.42348e-17, No Iterations 1
DILUPBiCG:  Solving for ILambda_4_0, Initial residual = 0.0551361, Final residual = 5.16117e-17, No Iterations 1
DILUPBiCG:  Solving for ILambda_5_0, Initial residual = 0.0503857, Final residual = 3.65475e-17, No Iterations 1
DILUPBiCG:  Solving for ILambda_6_0, Initial residual = 0.0463533, Final residual = 2.37734e-17, No Iterations 1
DILUPBiCG:  Solving for ILambda_7_0, Initial residual = 0.0428172, Final residual = 4.26008e-17, No Iterations 1
DILUPBiCG:  Solving for ILambda_8_0, Initial residual = 0.0400061, Final residual = 3.22976e-17, No Iterations 1
DILUPBiCG:  Solving for ILambda_9_0, Initial residual = 0.036932, Final residual = 1.05695e-17, No Iterations 1
DILUPBiCG:  Solving for ILambda_10_0, Initial residual = 0.0339024, Final residual = 3.29093e-17, No Iterations 1
DILUPBiCG:  Solving for ILambda_11_0, Initial residual = 0.0316364, Final residual = 7.8851e-17, No Iterations 1
DILUPBiCG:  Solving for ILambda_12_0, Initial residual = 0.0283906, Final residual = 8.03004e-17, No Iterations 1
DILUPBiCG:  Solving for ILambda_13_0, Initial residual = 0.0265798, Final residual = 3.66367e-17, No Iterations 1
DILUPBiCG:  Solving for ILambda_14_0, Initial residual = 0.0231515, Final residual = 1.07469e-17, No Iterations 1
DILUPBiCG:  Solving for ILambda_15_0, Initial residual = 0.0212599, Final residual = 3.0583e-17, No Iterations 1
DILUPBiCG:  Solving for ILambda_48_0, Initial residual = 0.0212599, Final residual = 1.30127e-07, No Iterations 4
DILUPBiCG:  Solving for ILambda_49_0, Initial residual = 0.0231504, Final residual = 4.43932e-07, No Iterations 5
DILUPBiCG:  Solving for ILambda_50_0, Initial residual = 0.0265801, Final residual = 2.26042e-06, No Iterations 5
DILUPBiCG:  Solving for ILambda_51_0, Initial residual = 0.0283919, Final residual = 5.89158e-06, No Iterations 5
DILUPBiCG:  Solving for ILambda_52_0, Initial residual = 0.0316448, Final residual = 7.98355e-06, No Iterations 5
DILUPBiCG:  Solving for ILambda_53_0, Initial residual = 0.0339102, Final residual = 1.08079e-05, No Iterations 5
DILUPBiCG:  Solving for ILambda_54_0, Initial residual = 0.0369396, Final residual = 1.42164e-05, No Iterations 5
DILUPBiCG:  Solving for ILambda_55_0, Initial residual = 0.0400128, Final residual = 1.80593e-05, No Iterations 5
DILUPBiCG:  Solving for ILambda_56_0, Initial residual = 0.0428219, Final residual = 1.44368e-05, No Iterations 5
DILUPBiCG:  Solving for ILambda_57_0, Initial residual = 0.0463561, Final residual = 1.32559e-05, No Iterations 5
DILUPBiCG:  Solving for ILambda_58_0, Initial residual = 0.0503871, Final residual = 1.15355e-05, No Iterations 5
DILUPBiCG:  Solving for ILambda_59_0, Initial residual = 0.0551381, Final residual = 8.25506e-06, No Iterations 5
DILUPBiCG:  Solving for ILambda_60_0, Initial residual = 0.0610271, Final residual = 4.92696e-06, No Iterations 5
DILUPBiCG:  Solving for ILambda_61_0, Initial residual = 0.0687373, Final residual = 3.89956e-06, No Iterations 5
DILUPBiCG:  Solving for ILambda_62_0, Initial residual = 0.0785899, Final residual = 6.52485e-07, No Iterations 5
DILUPBiCG:  Solving for ILambda_63_0, Initial residual = 0.093203, Final residual = 8.56094e-09, No Iterations 5
ExecutionTime = 0.05 s  ClockTime = 0 s

Time = 0.02

Radiation solver iter: 0
DILUPBiCG:  Solving for ILambda_0_0, Initial residual = 0.0944613, Final residual = 8.09308e-17, No Iterations 1
DILUPBiCG:  Solving for ILambda_1_0, Initial residual = 0.0774089, Final residual = 2.39043e-17, No Iterations 1
DILUPBiCG:  Solving for ILambda_2_0, Initial residual = 0.0661715, Final residual = 9.18855e-17, No Iterations 1
DILUPBiCG:  Solving for ILambda_3_0, Initial residual = 0.0575937, Final residual = 3.95511e-17, No Iterations 1
DILUPBiCG:  Solving for ILambda_4_0, Initial residual = 0.0513304, Final residual = 3.71605e-17, No Iterations 1
DILUPBiCG:  Solving for ILambda_5_0, Initial residual = 0.0463215, Final residual = 1.32322e-17, No Iterations 1
DILUPBiCG:  Solving for ILambda_6_0, Initial residual = 0.0418532, Final residual = 1.50399e-17, No Iterations 1
DILUPBiCG:  Solving for ILambda_7_0, Initial residual = 0.0384091, Final residual = 9.33364e-17, No Iterations 1
DILUPBiCG:  Solving for ILambda_8_0, Initial residual = 0.03522, Final residual = 8.94889e-17, No Iterations 1
DILUPBiCG:  Solving for ILambda_9_0, Initial residual = 0.0323905, Final residual = 1.2359e-17, No Iterations 1
DILUPBiCG:  Solving for ILambda_10_0, Initial residual = 0.0297903, Final residual = 2.17777e-17, No Iterations 1
DILUPBiCG:  Solving for ILambda_11_0, Initial residual = 0.0268313, Final residual = 1.10897e-16, No Iterations 1
DILUPBiCG:  Solving for ILambda_12_0, Initial residual = 0.0245969, Final residual = 5.46263e-17, No Iterations 1
DILUPBiCG:  Solving for ILambda_13_0, Initial residual = 0.0220945, Final residual = 3.82677e-17, No Iterations 1
DILUPBiCG:  Solving for ILambda_14_0, Initial residual = 0.0191469, Final residual = 1.55371e-17, No Iterations 1
DILUPBiCG:  Solving for ILambda_15_0, Initial residual = 0.0169305, Final residual = 2.32942e-17, No Iterations 1
DILUPBiCG:  Solving for ILambda_16_0, Initial residual = 0, Final residual = 0, No Iterations 0
DILUPBiCG:  Solving for ILambda_17_0, Initial residual = 0, Final residual = 0, No Iterations 0
DILUPBiCG:  Solving for ILambda_18_0, Initial residual = 0, Final residual = 0, No Iterations 0
DILUPBiCG:  Solving for ILambda_19_0, Initial residual = 0, Final residual = 0, No Iterations 0
DILUPBiCG:  Solving for ILambda_20_0, Initial residual = 0, Final residual = 0, No Iterations 0
DILUPBiCG:  Solving for ILambda_21_0, Initial residual = 0, Final residual = 0, No Iterations 0
DILUPBiCG:  Solving for ILambda_22_0, Initial residual = 0, Final residual = 0, No Iterations 0
DILUPBiCG:  Solving for ILambda_23_0, Initial residual = 0, Final residual = 0, No Iterations 0
DILUPBiCG:  Solving for ILambda_24_0, Initial residual = 0, Final residual = 0, No Iterations 0
DILUPBiCG:  Solving for ILambda_25_0, Initial residual = 0, Final residual = 0, No Iterations 0
DILUPBiCG:  Solving for ILambda_26_0, Initial residual = 0, Final residual = 0, No Iterations 0
DILUPBiCG:  Solving for ILambda_27_0, Initial residual = 0, Final residual = 0, No Iterations 0
DILUPBiCG:  Solving for ILambda_28_0, Initial residual = 0, Final residual = 0, No Iterations 0
DILUPBiCG:  Solving for ILambda_29_0, Initial residual = 0, Final residual = 0, No Iterations 0
DILUPBiCG:  Solving for ILambda_30_0, Initial residual = 0, Final residual = 0, No Iterations 0
DILUPBiCG:  Solving for ILambda_31_0, Initial residual = 0, Final residual = 0, No Iterations 0
DILUPBiCG:  Solving for ILambda_32_0, Initial residual = 0, Final residual = 0, No Iterations 0
DILUPBiCG:  Solving for ILambda_33_0, Initial residual = 0, Final residual = 0, No Iterations 0
DILUPBiCG:  Solving for ILambda_34_0, Initial residual = 0, Final residual = 0, No Iterations 0
DILUPBiCG:  Solving for ILambda_35_0, Initial residual = 0, Final residual = 0, No Iterations 0
DILUPBiCG:  Solving for ILambda_36_0, Initial residual = 0, Final residual = 0, No Iterations 0
DILUPBiCG:  Solving for ILambda_37_0, Initial residual = 0, Final residual = 0, No Iterations 0
DILUPBiCG:  Solving for ILambda_38_0, Initial residual = 0, Final residual = 0, No Iterations 0
DILUPBiCG:  Solving for ILambda_39_0, Initial residual = 0, Final residual = 0, No Iterations 0
DILUPBiCG:  Solving for ILambda_40_0, Initial residual = 0, Final residual = 0, No Iterations 0
DILUPBiCG:  Solving for ILambda_41_0, Initial residual = 0, Final residual = 0, No Iterations 0
DILUPBiCG:  Solving for ILambda_42_0, Initial residual = 0, Final residual = 0, No Iterations 0
DILUPBiCG:  Solving for ILambda_43_0, Initial residual = 0, Final residual = 0, No Iterations 0
DILUPBiCG:  Solving for ILambda_44_0, Initial residual = 0, Final residual = 0, No Iterations 0
DILUPBiCG:  Solving for ILambda_45_0, Initial residual = 0, Final residual = 0, No Iterations 0
DILUPBiCG:  Solving for ILambda_46_0, Initial residual = 0, Final residual = 0, No Iterations 0
DILUPBiCG:  Solving for ILambda_47_0, Initial residual = 0, Final residual = 0, No Iterations 0
DILUPBiCG:  Solving for ILambda_48_0, Initial residual = 0.0169305, Final residual = 9.33885e-08, No Iterations 4
DILUPBiCG:  Solving for ILambda_49_0, Initial residual = 0.0191459, Final residual = 2.95794e-07, No Iterations 5
DILUPBiCG:  Solving for ILambda_50_0, Initial residual = 0.0220942, Final residual = 1.55701e-06, No Iterations 5
DILUPBiCG:  Solving for ILambda_51_0, Initial residual = 0.0245983, Final residual = 3.62991e-05, No Iterations 5
DILUPBiCG:  Solving for ILambda_52_0, Initial residual = 0.0268393, Final residual = 5.48492e-06, No Iterations 5
DILUPBiCG:  Solving for ILambda_53_0, Initial residual = 0.0297972, Final residual = 8.27871e-06, No Iterations 5
DILUPBiCG:  Solving for ILambda_54_0, Initial residual = 0.0323984, Final residual = 1.06176e-05, No Iterations 5
DILUPBiCG:  Solving for ILambda_55_0, Initial residual = 0.0352264, Final residual = 2.52713e-05, No Iterations 5
DILUPBiCG:  Solving for ILambda_56_0, Initial residual = 0.0384141, Final residual = 1.21201e-05, No Iterations 5
DILUPBiCG:  Solving for ILambda_57_0, Initial residual = 0.041857, Final residual = 1.14907e-05, No Iterations 5
DILUPBiCG:  Solving for ILambda_58_0, Initial residual = 0.0463253, Final residual = 8.99195e-06, No Iterations 5
DILUPBiCG:  Solving for ILambda_59_0, Initial residual = 0.051334, Final residual = 6.10098e-06, No Iterations 5
DILUPBiCG:  Solving for ILambda_60_0, Initial residual = 0.0575959, Final residual = 4.32537e-06, No Iterations 5
DILUPBiCG:  Solving for ILambda_61_0, Initial residual = 0.066173, Final residual = 3.1802e-06, No Iterations 5
DILUPBiCG:  Solving for ILambda_62_0, Initial residual = 0.0774073, Final residual = 5.65732e-07, No Iterations 5
DILUPBiCG:  Solving for ILambda_63_0, Initial residual = 0.0944614, Final residual = 7.4155e-09, No Iterations 5
Radiation solver iter: 1
DILUPBiCG:  Solving for ILambda_0_0, Initial residual = 0.0967311, Final residual = 4.54539e-17, No Iterations 1
DILUPBiCG:  Solving for ILambda_1_0, Initial residual = 0.0770289, Final residual = 2.77924e-17, No Iterations 1
DILUPBiCG:  Solving for ILambda_2_0, Initial residual = 0.064217, Final residual = 7.52318e-17, No Iterations 1
DILUPBiCG:  Solving for ILambda_3_0, Initial residual = 0.055132, Final residual = 1.02191e-16, No Iterations 1
DILUPBiCG:  Solving for ILambda_4_0, Initial residual = 0.0483402, Final residual = 7.55457e-17, No Iterations 1
DILUPBiCG:  Solving for ILambda_5_0, Initial residual = 0.0428175, Final residual = 1.24305e-17, No Iterations 1
DILUPBiCG:  Solving for ILambda_6_0, Initial residual = 0.0383316, Final residual = 2.98978e-17, No Iterations 1
DILUPBiCG:  Solving for ILambda_7_0, Initial residual = 0.0346923, Final residual = 2.65528e-17, No Iterations 1
DILUPBiCG:  Solving for ILambda_8_0, Initial residual = 0.0313516, Final residual = 7.96352e-18, No Iterations 1
DILUPBiCG:  Solving for ILambda_9_0, Initial residual = 0.0285406, Final residual = 7.3718e-18, No Iterations 1
DILUPBiCG:  Solving for ILambda_10_0, Initial residual = 0.0257599, Final residual = 6.21032e-17, No Iterations 1
DILUPBiCG:  Solving for ILambda_11_0, Initial residual = 0.0233916, Final residual = 6.29064e-18, No Iterations 1
DILUPBiCG:  Solving for ILambda_12_0, Initial residual = 0.0208608, Final residual = 2.67943e-17, No Iterations 1
DILUPBiCG:  Solving for ILambda_13_0, Initial residual = 0.0181972, Final residual = 1.93089e-17, No Iterations 1
DILUPBiCG:  Solving for ILambda_14_0, Initial residual = 0.0161561, Final residual = 2.41392e-17, No Iterations 1
DILUPBiCG:  Solving for ILambda_15_0, Initial residual = 0.0134549, Final residual = 1.00695e-17, No Iterations 1
DILUPBiCG:  Solving for ILambda_48_0, Initial residual = 0.0134549, Final residual = 6.64911e-08, No Iterations 4
DILUPBiCG:  Solving for ILambda_49_0, Initial residual = 0.0161554, Final residual = 1.88478e-07, No Iterations 5
DILUPBiCG:  Solving for ILambda_50_0, Initial residual = 0.0181965, Final residual = 9.94779e-07, No Iterations 5
DILUPBiCG:  Solving for ILambda_51_0, Initial residual = 0.0208602, Final residual = 3.243e-06, No Iterations 5
DILUPBiCG:  Solving for ILambda_52_0, Initial residual = 0.0233993, Final residual = 4.51596e-06, No Iterations 5
DILUPBiCG:  Solving for ILambda_53_0, Initial residual = 0.0257664, Final residual = 6.39001e-06, No Iterations 5
DILUPBiCG:  Solving for ILambda_54_0, Initial residual = 0.0285485, Final residual = 7.69011e-06, No Iterations 5
DILUPBiCG:  Solving for ILambda_55_0, Initial residual = 0.0313591, Final residual = 8.39723e-06, No Iterations 5
DILUPBiCG:  Solving for ILambda_56_0, Initial residual = 0.034698, Final residual = 1.14349e-05, No Iterations 5
DILUPBiCG:  Solving for ILambda_57_0, Initial residual = 0.0383363, Final residual = 8.23606e-06, No Iterations 5
DILUPBiCG:  Solving for ILambda_58_0, Initial residual = 0.0428231, Final residual = 6.33937e-06, No Iterations 5
DILUPBiCG:  Solving for ILambda_59_0, Initial residual = 0.0483457, Final residual = 5.04446e-06, No Iterations 5
DILUPBiCG:  Solving for ILambda_60_0, Initial residual = 0.0551354, Final residual = 5.92033e-06, No Iterations 5
DILUPBiCG:  Solving for ILambda_61_0, Initial residual = 0.064219, Final residual = 2.46389e-06, No Iterations 5
DILUPBiCG:  Solving for ILambda_62_0, Initial residual = 0.0770267, Final residual = 3.15681e-06, No Iterations 5
DILUPBiCG:  Solving for ILambda_63_0, Initial residual = 0.0967312, Final residual = 9.63146e-08, No Iterations 4
Radiation solver iter: 2
DILUPBiCG:  Solving for ILambda_0_0, Initial residual = 0.0997826, Final residual = 6.53604e-17, No Iterations 1
DILUPBiCG:  Solving for ILambda_1_0, Initial residual = 0.0770099, Final residual = 9.42569e-17, No Iterations 1
DILUPBiCG:  Solving for ILambda_2_0, Initial residual = 0.0627997, Final residual = 1.55983e-16, No Iterations 1
DILUPBiCG:  Solving for ILambda_3_0, Initial residual = 0.0530424, Final residual = 1.29199e-16, No Iterations 1
DILUPBiCG:  Solving for ILambda_4_0, Initial residual = 0.0456676, Final residual = 3.76847e-17, No Iterations 1
DILUPBiCG:  Solving for ILambda_5_0, Initial residual = 0.0398829, Final residual = 3.41975e-17, No Iterations 1
DILUPBiCG:  Solving for ILambda_6_0, Initial residual = 0.0353527, Final residual = 4.51466e-17, No Iterations 1
DILUPBiCG:  Solving for ILambda_7_0, Initial residual = 0.0313408, Final residual = 5.22784e-17, No Iterations 1
DILUPBiCG:  Solving for ILambda_8_0, Initial residual = 0.0281629, Final residual = 1.58738e-17, No Iterations 1
DILUPBiCG:  Solving for ILambda_9_0, Initial residual = 0.025057, Final residual = 2.22059e-17, No Iterations 1
DILUPBiCG:  Solving for ILambda_10_0, Initial residual = 0.0225634, Final residual = 4.70799e-18, No Iterations 1
DILUPBiCG:  Solving for ILambda_11_0, Initial residual = 0.0200861, Final residual = 6.09314e-17, No Iterations 1
DILUPBiCG:  Solving for ILambda_12_0, Initial residual = 0.0175805, Final residual = 1.03538e-17, No Iterations 1
DILUPBiCG:  Solving for ILambda_13_0, Initial residual = 0.0154497, Final residual = 5.08061e-18, No Iterations 1
DILUPBiCG:  Solving for ILambda_14_0, Initial residual = 0.0134044, Final residual = 1.24767e-17, No Iterations 1
DILUPBiCG:  Solving for ILambda_15_0, Initial residual = 0.0105789, Final residual = 2.26626e-18, No Iterations 1
DILUPBiCG:  Solving for ILambda_48_0, Initial residual = 0.0105789, Final residual = 8.61999e-07, No Iterations 3
DILUPBiCG:  Solving for ILambda_49_0, Initial residual = 0.0134038, Final residual = 1.20523e-07, No Iterations 5
DILUPBiCG:  Solving for ILambda_50_0, Initial residual = 0.0154483, Final residual = 5.9108e-07, No Iterations 5
DILUPBiCG:  Solving for ILambda_51_0, Initial residual = 0.0175793, Final residual = 4.11648e-06, No Iterations 5
DILUPBiCG:  Solving for ILambda_52_0, Initial residual = 0.0200927, Final residual = 6.10639e-06, No Iterations 5
DILUPBiCG:  Solving for ILambda_53_0, Initial residual = 0.0225695, Final residual = 4.71631e-06, No Iterations 5
DILUPBiCG:  Solving for ILambda_54_0, Initial residual = 0.0250655, Final residual = 5.63095e-06, No Iterations 5
DILUPBiCG:  Solving for ILambda_55_0, Initial residual = 0.0281711, Final residual = 7.47476e-06, No Iterations 5
DILUPBiCG:  Solving for ILambda_56_0, Initial residual = 0.0313471, Final residual = 6.43971e-06, No Iterations 5
DILUPBiCG:  Solving for ILambda_57_0, Initial residual = 0.0353586, Final residual = 5.99406e-06, No Iterations 5
DILUPBiCG:  Solving for ILambda_58_0, Initial residual = 0.0398906, Final residual = 5.06056e-06, No Iterations 5
DILUPBiCG:  Solving for ILambda_59_0, Initial residual = 0.0456742, Final residual = 6.73673e-06, No Iterations 5
DILUPBiCG:  Solving for ILambda_60_0, Initial residual = 0.0530462, Final residual = 3.22039e-06, No Iterations 5
DILUPBiCG:  Solving for ILambda_61_0, Initial residual = 0.062802, Final residual = 5.55853e-06, No Iterations 5
DILUPBiCG:  Solving for ILambda_62_0, Initial residual = 0.0770082, Final residual = 2.64886e-07, No Iterations 5
DILUPBiCG:  Solving for ILambda_63_0, Initial residual = 0.0997827, Final residual = 6.97417e-08, No Iterations 4
ExecutionTime = 0.06 s  ClockTime = 0 s

Time = 0.025

Radiation solver iter: 0
DILUPBiCG:  Solving for ILambda_0_0, Initial residual = 0.10301, Final residual = 2.58565e-17, No Iterations 1
DILUPBiCG:  Solving for ILambda_1_0, Initial residual = 0.0767819, Final residual = 6.14528e-17, No Iterations 1
DILUPBiCG:  Solving for ILambda_2_0, Initial residual = 0.0613879, Final residual = 2.15918e-17, No Iterations 1
DILUPBiCG:  Solving for ILambda_3_0, Initial residual = 0.0510888, Final residual = 1.28042e-17, No Iterations 1
DILUPBiCG:  Solving for ILambda_4_0, Initial residual = 0.0433556, Final residual = 4.60025e-17, No Iterations 1
DILUPBiCG:  Solving for ILambda_5_0, Initial residual = 0.0373538, Final residual = 1.72822e-17, No Iterations 1
DILUPBiCG:  Solving for ILambda_6_0, Initial residual = 0.0325847, Final residual = 1.13167e-17, No Iterations 1
DILUPBiCG:  Solving for ILambda_7_0, Initial residual = 0.0285502, Final residual = 3.56811e-17, No Iterations 1
DILUPBiCG:  Solving for ILambda_8_0, Initial residual = 0.0252609, Final residual = 1.99705e-17, No Iterations 1
DILUPBiCG:  Solving for ILambda_9_0, Initial residual = 0.0222742, Final residual = 9.55496e-18, No Iterations 1
DILUPBiCG:  Solving for ILambda_10_0, Initial residual = 0.0195531, Final residual = 1.64541e-17, No Iterations 1
DILUPBiCG:  Solving for ILambda_11_0, Initial residual = 0.0172474, Final residual = 4.84398e-18, No Iterations 1
DILUPBiCG:  Solving for ILambda_12_0, Initial residual = 0.0150876, Final residual = 7.6655e-18, No Iterations 1
DILUPBiCG:  Solving for ILambda_13_0, Initial residual = 0.0129052, Final residual = 5.7474e-18, No Iterations 1
DILUPBiCG:  Solving for ILambda_14_0, Initial residual = 0.0108803, Final residual = 1.11636e-17, No Iterations 1
DILUPBiCG:  Solving for ILambda_15_0, Initial residual = 0.00817026, Final residual = 9.0069e-18, No Iterations 1
DILUPBiCG:  Solving for ILambda_16_0, Initial residual = 0, Final residual = 0, No Iterations 0
DILUPBiCG:  Solving for ILambda_17_0, Initial residual = 0, Final residual = 0, No Iterations 0
DILUPBiCG:  Solving for ILambda_18_0, Initial residual = 0, Final residual = 0, No Iterations 0
DILUPBiCG:  Solving for ILambda_19_0, Initial residual = 0, Final residual = 0, No Iterations 0
DILUPBiCG:  Solving for ILambda_20_0, Initial residual = 0, Final residual = 0, No Iterations 0
DILUPBiCG:  Solving for ILambda_21_0, Initial residual = 0, Final residual = 0, No Iterations 0
DILUPBiCG:  Solving for ILambda_22_0, Initial residual = 0, Final residual = 0, No Iterations 0
DILUPBiCG:  Solving for ILambda_23_0, Initial residual = 0, Final residual = 0, No Iterations 0
DILUPBiCG:  Solving for ILambda_24_0, Initial residual = 0, Final residual = 0, No Iterations 0
DILUPBiCG:  Solving for ILambda_25_0, Initial residual = 0, Final residual = 0, No Iterations 0
DILUPBiCG:  Solving for ILambda_26_0, Initial residual = 0, Final residual = 0, No Iterations 0
DILUPBiCG:  Solving for ILambda_27_0, Initial residual = 0, Final residual = 0, No Iterations 0
DILUPBiCG:  Solving for ILambda_28_0, Initial residual = 0, Final residual = 0, No Iterations 0
DILUPBiCG:  Solving for ILambda_29_0, Initial residual = 0, Final residual = 0, No Iterations 0
DILUPBiCG:  Solving for ILambda_30_0, Initial residual = 0, Final residual = 0, No Iterations 0
DILUPBiCG:  Solving for ILambda_31_0, Initial residual = 0, Final residual = 0, No Iterations 0
DILUPBiCG:  Solving for ILambda_32_0, Initial residual = 0, Final residual = 0, No Iterations 0
DILUPBiCG:  Solving for ILambda_33_0, Initial residual = 0, Final residual = 0, No Iterations 0
DILUPBiCG:  Solving for ILambda_34_0, Initial residual = 0, Final residual = 0, No Iterations 0
DILUPBiCG:  Solving for ILambda_35_0, Initial residual = 0, Final residual = 0, No Iterations 0
DILUPBiCG:  Solving for ILambda_36_0, Initial residual = 0, Final residual = 0, No Iterations 0
DILUPBiCG:  Solving for ILambda_37_0, Initial residual = 0, Final residual = 0, No Iterations 0
DILUPBiCG:  Solving for ILambda_38_0, Initial residual = 0, Final residual = 0, No Iterations 0
DILUPBiCG:  Solving for ILambda_39_0, Initial residual = 0, Final residual = 0, No Iterations 0
DILUPBiCG:  Solving for ILambda_40_0, Initial residual = 0, Final residual = 0, No Iterations 0
DILUPBiCG:  Solving for ILambda_41_0, Initial residual = 0, Final residual = 0, No Iterations 0
DILUPBiCG:  Solving for ILambda_42_0, Initial residual = 0, Final residual = 0, No Iterations 0
DILUPBiCG:  Solving for ILambda_43_0, Initial residual = 0, Final residual = 0, No Iterations 0
DILUPBiCG:  Solving for ILambda_44_0, Initial residual = 0, Final residual = 0, No Iterations 0
DILUPBiCG:  Solving for ILambda_45_0, Initial residual = 0, Final residual = 0, No Iterations 0
DILUPBiCG:  Solving for ILambda_46_0, Initial residual = 0, Final residual = 0, No Iterations 0
DILUPBiCG:  Solving for ILambda_47_0, Initial residual = 0, Final residual = 0, No Iterations 0
DILUPBiCG:  Solving for ILambda_48_0, Initial residual = 0.00817004, Final residual = 6.90906e-07, No Iterations 3
DILUPBiCG:  Solving for ILambda_49_0, Initial residual = 0.0108798, Final residual = 8.42712e-07, No Iterations 4
DILUPBiCG:  Solving for ILambda_50_0, Initial residual = 0.0129038, Final residual = 4.11069e-07, No Iterations 5
DILUPBiCG:  Solving for ILambda_51_0, Initial residual = 0.0150857, Final residual = 1.23828e-06, No Iterations 5
DILUPBiCG:  Solving for ILambda_52_0, Initial residual = 0.017253, Final residual = 1.08213e-05, No Iterations 5
DILUPBiCG:  Solving for ILambda_53_0, Initial residual = 0.0195585, Final residual = 4.45674e-06, No Iterations 5
DILUPBiCG:  Solving for ILambda_54_0, Initial residual = 0.0222815, Final residual = 3.67026e-06, No Iterations 5
DILUPBiCG:  Solving for ILambda_55_0, Initial residual = 0.0252694, Final residual = 6.18341e-06, No Iterations 5
DILUPBiCG:  Solving for ILambda_56_0, Initial residual = 0.0285562, Final residual = 5.39883e-06, No Iterations 5
DILUPBiCG:  Solving for ILambda_57_0, Initial residual = 0.0325914, Final residual = 4.64115e-06, No Iterations 5
DILUPBiCG:  Solving for ILambda_58_0, Initial residual = 0.0373628, Final residual = 5.78499e-06, No Iterations 5
DILUPBiCG:  Solving for ILambda_59_0, Initial residual = 0.0433638, Final residual = 6.37632e-06, No Iterations 5
DILUPBiCG:  Solving for ILambda_60_0, Initial residual = 0.0510926, Final residual = 4.53747e-05, No Iterations 5
DILUPBiCG:  Solving for ILambda_61_0, Initial residual = 0.0613893, Final residual = 1.31603e-06, No Iterations 5
DILUPBiCG:  Solving for ILambda_62_0, Initial residual = 0.0767801, Final residual = 1.64273e-07, No Iterations 5
DILUPBiCG:  Solving for ILambda_63_0, Initial residual = 0.10301, Final residual = 5.33744e-08, No Iterations 4
Radiation solver iter: 1
DILUPBiCG:  Solving for ILambda_0_0, Initial residual = 0.105624, Final residual = 2.85581e-17, No Iterations 1
DILUPBiCG:  Solving for ILambda_1_0, Initial residual = 0.0757972, Final residual = 4.39191e-17, No Iterations 1
DILUPBiCG:  Solving for ILambda_2_0, Initial residual = 0.0596979, Final residual = 4.34503e-17, No Iterations 1
DILUPBiCG:  Solving for ILambda_3_0, Initial residual = 0.0490738, Final residual = 1.28611e-17, No Iterations 1
DILUPBiCG:  Solving for ILambda_4_0, Initial residual = 0.0411775, Final residual = 1.30603e-17, No Iterations 1
DILUPBiCG:  Solving for ILambda_5_0, Initial residual = 0.0350262, Final residual = 1.43662e-17, No Iterations 1
DILUPBiCG:  Solving for ILambda_6_0, Initial residual = 0.0301347, Final residual = 2.27068e-17, No Iterations 1
DILUPBiCG:  Solving for ILambda_7_0, Initial residual = 0.0260666, Final residual = 2.02555e-17, No Iterations 1
DILUPBiCG:  Solving for ILambda_8_0, Initial residual = 0.0225439, Final residual = 3.71771e-17, No Iterations 1
DILUPBiCG:  Solving for ILambda_9_0, Initial residual = 0.0197215, Final residual = 1.61207e-17, No Iterations 1
DILUPBiCG:  Solving for ILambda_10_0, Initial residual = 0.0171083, Final residual = 1.39014e-17, No Iterations 1
DILUPBiCG:  Solving for ILambda_11_0, Initial residual = 0.0147618, Final residual = 5.80109e-18, No Iterations 1
DILUPBiCG:  Solving for ILambda_12_0, Initial residual = 0.0126031, Final residual = 1.30407e-17, No Iterations 1
DILUPBiCG:  Solving for ILambda_13_0, Initial residual = 0.010547, Final residual = 3.43264e-18, No Iterations 1
DILUPBiCG:  Solving for ILambda_14_0, Initial residual = 0.00864632, Final residual = 6.39476e-18, No Iterations 1
DILUPBiCG:  Solving for ILambda_15_0, Initial residual = 0.0061664, Final residual = 1.27945e-18, No Iterations 1
DILUPBiCG:  Solving for ILambda_48_0, Initial residual = 0.00616612, Final residual = 5.27845e-07, No Iterations 3
DILUPBiCG:  Solving for ILambda_49_0, Initial residual = 0.00864579, Final residual = 5.2248e-07, No Iterations 4
DILUPBiCG:  Solving for ILambda_50_0, Initial residual = 0.0105457, Final residual = 2.62466e-07, No Iterations 5
DILUPBiCG:  Solving for ILambda_51_0, Initial residual = 0.0126013, Final residual = 9.32563e-07, No Iterations 5
DILUPBiCG:  Solving for ILambda_52_0, Initial residual = 0.0147655, Final residual = 1.88654e-06, No Iterations 5
DILUPBiCG:  Solving for ILambda_53_0, Initial residual = 0.017113, Final residual = 3.47777e-06, No Iterations 5
DILUPBiCG:  Solving for ILambda_54_0, Initial residual = 0.0197286, Final residual = 6.43787e-06, No Iterations 5
DILUPBiCG:  Solving for ILambda_55_0, Initial residual = 0.022552, Final residual = 4.18565e-06, No Iterations 5
DILUPBiCG:  Solving for ILambda_56_0, Initial residual = 0.0260731, Final residual = 6.55214e-06, No Iterations 5
DILUPBiCG:  Solving for ILambda_57_0, Initial residual = 0.0301429, Final residual = 4.4558e-06, No Iterations 5
DILUPBiCG:  Solving for ILambda_58_0, Initial residual = 0.0350353, Final residual = 2.41722e-05, No Iterations 5
DILUPBiCG:  Solving for ILambda_59_0, Initial residual = 0.0411856, Final residual = 1.97335e-05, No Iterations 5
DILUPBiCG:  Solving for ILambda_60_0, Initial residual = 0.0490722, Final residual = 3.97323e-06, No Iterations 5
DILUPBiCG:  Solving for ILambda_61_0, Initial residual = 0.0596989, Final residual = 6.93461e-07, No Iterations 5
DILUPBiCG:  Solving for ILambda_62_0, Initial residual = 0.0757955, Final residual = 1.1322e-07, No Iterations 5
DILUPBiCG:  Solving for ILambda_63_0, Initial residual = 0.105624, Final residual = 4.18598e-08, No Iterations 4
Radiation solver iter: 2
DILUPBiCG:  Solving for ILambda_0_0, Initial residual = 0.106949, Final residual = 4.90144e-17, No Iterations 1
DILUPBiCG:  Solving for ILambda_1_0, Initial residual = 0.0736427, Final residual = 6.38159e-17, No Iterations 1
DILUPBiCG:  Solving for ILambda_2_0, Initial residual = 0.0573072, Final residual = 6.64631e-17, No Iterations 1
DILUPBiCG:  Solving for ILambda_3_0, Initial residual = 0.0467167, Final residual = 3.56808e-17, No Iterations 1
DILUPBiCG:  Solving for ILambda_4_0, Initial residual = 0.0389605, Final residual = 4.1643e-17, No Iterations 1
DILUPBiCG:  Solving for ILambda_5_0, Initial residual = 0.0327972, Final residual = 2.16618e-17, No Iterations 1
DILUPBiCG:  Solving for ILambda_6_0, Initial residual = 0.0278662, Final residual = 5.18685e-17, No Iterations 1
DILUPBiCG:  Solving for ILambda_7_0, Initial residual = 0.0237358, Final residual = 5.6236e-18, No Iterations 1
DILUPBiCG:  Solving for ILambda_8_0, Initial residual = 0.0202819, Final residual = 1.58466e-17, No Iterations 1
DILUPBiCG:  Solving for ILambda_9_0, Initial residual = 0.0172563, Final residual = 1.14035e-17, No Iterations 1
DILUPBiCG:  Solving for ILambda_10_0, Initial residual = 0.0147928, Final residual = 2.24254e-17, No Iterations 1
DILUPBiCG:  Solving for ILambda_11_0, Initial residual = 0.012571, Final residual = 3.67654e-17, No Iterations 1
DILUPBiCG:  Solving for ILambda_12_0, Initial residual = 0.0105316, Final residual = 9.84385e-18, No Iterations 1
DILUPBiCG:  Solving for ILambda_13_0, Initial residual = 0.00858729, Final residual = 1.34001e-17, No Iterations 1
DILUPBiCG:  Solving for ILambda_14_0, Initial residual = 0.00671791, Final residual = 9.95241e-18, No Iterations 1
DILUPBiCG:  Solving for ILambda_15_0, Initial residual = 0.00452438, Final residual = 6.62634e-19, No Iterations 1
DILUPBiCG:  Solving for ILambda_48_0, Initial residual = 0.00452415, Final residual = 3.93013e-07, No Iterations 3
DILUPBiCG:  Solving for ILambda_49_0, Initial residual = 0.00671741, Final residual = 3.21414e-07, No Iterations 4
DILUPBiCG:  Solving for ILambda_50_0, Initial residual = 0.00858621, Final residual = 1.60355e-07, No Iterations 5
DILUPBiCG:  Solving for ILambda_51_0, Initial residual = 0.0105301, Final residual = 7.96418e-07, No Iterations 5
DILUPBiCG:  Solving for ILambda_52_0, Initial residual = 0.0125732, Final residual = 2.7489e-06, No Iterations 5
DILUPBiCG:  Solving for ILambda_53_0, Initial residual = 0.014797, Final residual = 2.70402e-06, No Iterations 5
DILUPBiCG:  Solving for ILambda_54_0, Initial residual = 0.0172626, Final residual = 1.52722e-05, No Iterations 5
DILUPBiCG:  Solving for ILambda_55_0, Initial residual = 0.0202883, Final residual = 3.28979e-06, No Iterations 5
DILUPBiCG:  Solving for ILambda_56_0, Initial residual = 0.0237435, Final residual = 7.50855e-06, No Iterations 5
DILUPBiCG:  Solving for ILambda_57_0, Initial residual = 0.0278749, Final residual = 0.00566436, No Iterations 5
DILUPBiCG:  Solving for ILambda_58_0, Initial residual = 0.0328043, Final residual = 1.0462e-05, No Iterations 5
DILUPBiCG:  Solving for ILambda_59_0, Initial residual = 0.0389682, Final residual = 1.79035e-05, No Iterations 5
DILUPBiCG:  Solving for ILambda_60_0, Initial residual = 0.0467147, Final residual = 1.65639e-06, No Iterations 5
DILUPBiCG:  Solving for ILambda_61_0, Initial residual = 0.0573076, Final residual = 4.12106e-07, No Iterations 5
DILUPBiCG:  Solving for ILambda_62_0, Initial residual = 0.0736414, Final residual = 8.21664e-07, No Iterations 4
DILUPBiCG:  Solving for ILambda_63_0, Initial residual = 0.106949, Final residual = 3.30739e-08, No Iterations 4
ExecutionTime = 0.07 s  ClockTime = 0 s

Time = 0.03

Radiation solver iter: 0
DILUPBiCG:  Solving for ILambda_0_0, Initial residual = 0.105493, Final residual = 2.7215e-17, No Iterations 1
DILUPBiCG:  Solving for ILambda_1_0, Initial residual = 0.0695831, Final residual = 2.25201e-17, No Iterations 1
DILUPBiCG:  Solving for ILambda_2_0, Initial residual = 0.0538716, Final residual = 2.09003e-17, No Iterations 1
DILUPBiCG:  Solving for ILambda_3_0, Initial residual = 0.0438846, Final residual = 1.6876e-17, No Iterations 1
DILUPBiCG:  Solving for ILambda_4_0, Initial residual = 0.0365508, Final residual = 8.15038e-18, No Iterations 1
DILUPBiCG:  Solving for ILambda_5_0, Initial residual = 0.0305854, Final residual = 3.29801e-17, No Iterations 1
DILUPBiCG:  Solving for ILambda_6_0, Initial residual = 0.0257049, Final residual = 1.31253e-17, No Iterations 1
DILUPBiCG:  Solving for ILambda_7_0, Initial residual = 0.0215987, Final residual = 4.86151e-17, No Iterations 1
DILUPBiCG:  Solving for ILambda_8_0, Initial residual = 0.0181228, Final residual = 3.43844e-17, No Iterations 1
[...]
DILUPBiCG:  Solving for ILambda_60_0, Initial residual = 0.00033464, Final residual = 2.28294e-07, No Iterations 3
DILUPBiCG:  Solving for ILambda_61_0, Initial residual = 0.000165569, Final residual = 9.72047e-07, No Iterations 2
DILUPBiCG:  Solving for ILambda_62_0, Initial residual = 0.000106545, Final residual = 2.0052e-07, No Iterations 2
DILUPBiCG:  Solving for ILambda_63_0, Initial residual = 0.000129591, Final residual = 3.4076e-08, No Iterations 2
Radiation solver iter: 1
DILUPBiCG:  Solving for ILambda_0_0, Initial residual = 7.02153e-05, Final residual = 2.82637e-20, No Iterations 1
DILUPBiCG:  Solving for ILambda_1_0, Initial residual = 6.63548e-05, Final residual = 1.31559e-20, No Iterations 1
DILUPBiCG:  Solving for ILambda_2_0, Initial residual = 0.000108487, Final residual = 1.41242e-20, No Iterations 1
DILUPBiCG:  Solving for ILambda_3_0, Initial residual = 0.000204883, Final residual = 4.30501e-20, No Iterations 1
DILUPBiCG:  Solving for ILambda_4_0, Initial residual = 0.000408571, Final residual = 1.0399e-19, No Iterations 1
DILUPBiCG:  Solving for ILambda_5_0, Initial residual = 0.000706021, Final residual = 8.79485e-20, No Iterations 1
DILUPBiCG:  Solving for ILambda_6_0, Initial residual = 0.00119305, Final residual = 2.32219e-19, No Iterations 1
DILUPBiCG:  Solving for ILambda_7_0, Initial residual = 0.0014121, Final residual = 3.19651e-19, No Iterations 1
DILUPBiCG:  Solving for ILambda_8_0, Initial residual = 0.00103435, Final residual = 5.28791e-19, No Iterations 1
DILUPBiCG:  Solving for ILambda_9_0, Initial residual = 0.000647053, Final residual = 1.28872e-18, No Iterations 1
DILUPBiCG:  Solving for ILambda_10_0, Initial residual = 0.00036247, Final residual = 9.07417e-20, No Iterations 1
DILUPBiCG:  Solving for ILambda_11_0, Initial residual = 0.000176573, Final residual = 2.96781e-20, No Iterations 1
DILUPBiCG:  Solving for ILambda_12_0, Initial residual = 7.09118e-05, Final residual = 6.01957e-20, No Iterations 1
DILUPBiCG:  Solving for ILambda_13_0, Initial residual = 2.19635e-05, Final residual = 5.50276e-21, No Iterations 1
DILUPBiCG:  Solving for ILambda_50_0, Initial residual = 2.20294e-05, Final residual = 9.46098e-08, No Iterations 2
DILUPBiCG:  Solving for ILambda_51_0, Initial residual = 7.08233e-05, Final residual = 2.81224e-07, No Iterations 2
DILUPBiCG:  Solving for ILambda_52_0, Initial residual = 0.000176736, Final residual = 8.24395e-07, No Iterations 2
DILUPBiCG:  Solving for ILambda_53_0, Initial residual = 0.000362958, Final residual = 1.75914e-07, No Iterations 4
DILUPBiCG:  Solving for ILambda_54_0, Initial residual = 0.000647384, Final residual = 6.82907e-07, No Iterations 3
DILUPBiCG:  Solving for ILambda_55_0, Initial residual = 0.00103449, Final residual = 6.0149e-07, No Iterations 3
DILUPBiCG:  Solving for ILambda_56_0, Initial residual = 0.00141241, Final residual = 4.63177e-08, No Iterations 4
DILUPBiCG:  Solving for ILambda_57_0, Initial residual = 0.001181, Final residual = 7.98609e-07, No Iterations 3
DILUPBiCG:  Solving for ILambda_58_0, Initial residual = 0.000706068, Final residual = 9.34062e-07, No Iterations 3
DILUPBiCG:  Solving for ILambda_59_0, Initial residual = 0.000408753, Final residual = 4.35507e-07, No Iterations 3
DILUPBiCG:  Solving for ILambda_60_0, Initial residual = 0.000204949, Final residual = 1.67295e-07, No Iterations 3
DILUPBiCG:  Solving for ILambda_61_0, Initial residual = 0.000108774, Final residual = 6.57101e-07, No Iterations 2
DILUPBiCG:  Solving for ILambda_62_0, Initial residual = 6.64924e-05, Final residual = 1.13468e-07, No Iterations 2
DILUPBiCG:  Solving for ILambda_63_0, Initial residual = 7.02755e-05, Final residual = 2.62153e-08, No Iterations 2
Radiation solver iter: 2
DILUPBiCG:  Solving for ILambda_0_0, Initial residual = 3.70417e-05, Final residual = 6.89959e-21, No Iterations 1
DILUPBiCG:  Solving for ILambda_1_0, Initial residual = 4.36753e-05, Final residual = 1.85095e-20, No Iterations 1
DILUPBiCG:  Solving for ILambda_2_0, Initial residual = 6.81238e-05, Final residual = 9.27823e-21, No Iterations 1
DILUPBiCG:  Solving for ILambda_3_0, Initial residual = 0.000132242, Final residual = 4.21651e-20, No Iterations 1
DILUPBiCG:  Solving for ILambda_4_0, Initial residual = 0.000268454, Final residual = 1.30589e-19, No Iterations 1
DILUPBiCG:  Solving for ILambda_5_0, Initial residual = 0.000498455, Final residual = 7.22111e-20, No Iterations 1
DILUPBiCG:  Solving for ILambda_6_0, Initial residual = 0.000852165, Final residual = 1.42899e-19, No Iterations 1
DILUPBiCG:  Solving for ILambda_7_0, Initial residual = 0.00107425, Final residual = 2.15507e-19, No Iterations 1
DILUPBiCG:  Solving for ILambda_8_0, Initial residual = 0.00080242, Final residual = 7.51817e-19, No Iterations 1
DILUPBiCG:  Solving for ILambda_9_0, Initial residual = 0.000497803, Final residual = 8.79239e-20, No Iterations 1
DILUPBiCG:  Solving for ILambda_10_0, Initial residual = 0.000271805, Final residual = 2.35116e-19, No Iterations 1
DILUPBiCG:  Solving for ILambda_11_0, Initial residual = 0.000126769, Final residual = 5.12957e-20, No Iterations 1
DILUPBiCG:  Solving for ILambda_12_0, Initial residual = 4.8521e-05, Final residual = 1.24974e-20, No Iterations 1
DILUPBiCG:  Solving for ILambda_13_0, Initial residual = 1.44716e-05, Final residual = 3.3789e-20, No Iterations 1
DILUPBiCG:  Solving for ILambda_50_0, Initial residual = 1.45354e-05, Final residual = 6.81214e-07, No Iterations 1
DILUPBiCG:  Solving for ILambda_51_0, Initial residual = 4.84422e-05, Final residual = 1.81687e-07, No Iterations 2
DILUPBiCG:  Solving for ILambda_52_0, Initial residual = 0.000126953, Final residual = 5.54505e-07, No Iterations 2
DILUPBiCG:  Solving for ILambda_53_0, Initial residual = 0.000272273, Final residual = 1.53095e-07, No Iterations 3
DILUPBiCG:  Solving for ILambda_54_0, Initial residual = 0.000498227, Final residual = 5.54334e-07, No Iterations 3
DILUPBiCG:  Solving for ILambda_55_0, Initial residual = 0.000802605, Final residual = 4.82914e-07, No Iterations 3
DILUPBiCG:  Solving for ILambda_56_0, Initial residual = 0.00107448, Final residual = 7.10963e-07, No Iterations 3
DILUPBiCG:  Solving for ILambda_57_0, Initial residual = 0.000842763, Final residual = 7.02077e-07, No Iterations 3
DILUPBiCG:  Solving for ILambda_58_0, Initial residual = 0.000498683, Final residual = 6.98558e-07, No Iterations 3
DILUPBiCG:  Solving for ILambda_59_0, Initial residual = 0.000268701, Final residual = 3.08345e-07, No Iterations 3
DILUPBiCG:  Solving for ILambda_60_0, Initial residual = 0.000132296, Final residual = 1.25874e-07, No Iterations 3
DILUPBiCG:  Solving for ILambda_61_0, Initial residual = 6.85495e-05, Final residual = 3.02405e-07, No Iterations 2
DILUPBiCG:  Solving for ILambda_62_0, Initial residual = 4.38448e-05, Final residual = 8.00568e-08, No Iterations 2
DILUPBiCG:  Solving for ILambda_63_0, Initial residual = 3.70691e-05, Final residual = 1.97676e-08, No Iterations 2
ExecutionTime = 0.15 s  ClockTime = 0 s

Time = 0.06

Radiation solver iter: 0
DILUPBiCG:  Solving for ILambda_0_0, Initial residual = 2.44318e-05, Final residual = 9.14897e-21, No Iterations 1
DILUPBiCG:  Solving for ILambda_1_0, Initial residual = 2.35635e-05, Final residual = 9.77436e-21, No Iterations 1
DILUPBiCG:  Solving for ILambda_2_0, Initial residual = 4.4075e-05, Final residual = 1.15401e-20, No Iterations 1
DILUPBiCG:  Solving for ILambda_3_0, Initial residual = 8.75356e-05, Final residual = 1.67143e-20, No Iterations 1
DILUPBiCG:  Solving for ILambda_4_0, Initial residual = 0.000177763, Final residual = 8.32956e-20, No Iterations 1
DILUPBiCG:  Solving for ILambda_5_0, Initial residual = 0.000351581, Final residual = 7.30102e-20, No Iterations 1
DILUPBiCG:  Solving for ILambda_6_0, Initial residual = 0.000610465, Final residual = 1.30923e-19, No Iterations 1
DILUPBiCG:  Solving for ILambda_7_0, Initial residual = 0.000807098, Final residual = 1.51265e-19, No Iterations 1
DILUPBiCG:  Solving for ILambda_8_0, Initial residual = 0.000615996, Final residual = 4.48003e-19, No Iterations 1
DILUPBiCG:  Solving for ILambda_9_0, Initial residual = 0.00037632, Final residual = 5.03021e-19, No Iterations 1
DILUPBiCG:  Solving for ILambda_10_0, Initial residual = 0.000199598, Final residual = 1.7066e-19, No Iterations 1
DILUPBiCG:  Solving for ILambda_11_0, Initial residual = 9.01221e-05, Final residual = 1.16705e-20, No Iterations 1
DILUPBiCG:  Solving for ILambda_12_0, Initial residual = 3.29333e-05, Final residual = 2.09683e-20, No Iterations 1
DILUPBiCG:  Solving for ILambda_13_0, Initial residual = 9.66506e-06, Final residual = 6.18901e-21, No Iterations 1
DILUPBiCG:  Solving for ILambda_14_0, Initial residual = 5.04596e-06, Final residual = 5.4886e-21, No Iterations 1
DILUPBiCG:  Solving for ILambda_15_0, Initial residual = 1.99324e-06, Final residual = 1.61892e-21, No Iterations 1
DILUPBiCG:  Solving for ILambda_16_0, Initial residual = 0, Final residual = 0, No Iterations 0
DILUPBiCG:  Solving for ILambda_17_0, Initial residual = 0, Final residual = 0, No Iterations 0
DILUPBiCG:  Solving for ILambda_18_0, Initial residual = 0, Final residual = 0, No Iterations 0
DILUPBiCG:  Solving for ILambda_19_0, Initial residual = 0, Final residual = 0, No Iterations 0
DILUPBiCG:  Solving for ILambda_20_0, Initial residual = 0, Final residual = 0, No Iterations 0
DILUPBiCG:  Solving for ILambda_21_0, Initial residual = 0, Final residual = 0, No Iterations 0
DILUPBiCG:  Solving for ILambda_22_0, Initial residual = 0, Final residual = 0, No Iterations 0
DILUPBiCG:  Solving for ILambda_23_0, Initial residual = 0, Final residual = 0, No Iterations 0
DILUPBiCG:  Solving for ILambda_24_0, Initial residual = 0, Final residual = 0, No Iterations 0
DILUPBiCG:  Solving for ILambda_25_0, Initial residual = 0, Final residual = 0, No Iterations 0
DILUPBiCG:  Solving for ILambda_26_0, Initial residual = 0, Final residual = 0, No Iterations 0
DILUPBiCG:  Solving for ILambda_27_0, Initial residual = 0, Final residual = 0, No Iterations 0
DILUPBiCG:  Solving for ILambda_28_0, Initial residual = 0, Final residual = 0, No Iterations 0
DILUPBiCG:  Solving for ILambda_29_0, Initial residual = 0, Final residual = 0, No Iterations 0
DILUPBiCG:  Solving for ILambda_30_0, Initial residual = 0, Final residual = 0, No Iterations 0
DILUPBiCG:  Solving for ILambda_31_0, Initial residual = 0, Final residual = 0, No Iterations 0
DILUPBiCG:  Solving for ILambda_32_0, Initial residual = 0, Final residual = 0, No Iterations 0
DILUPBiCG:  Solving for ILambda_33_0, Initial residual = 0, Final residual = 0, No Iterations 0
DILUPBiCG:  Solving for ILambda_34_0, Initial residual = 0, Final residual = 0, No Iterations 0
DILUPBiCG:  Solving for ILambda_35_0, Initial residual = 0, Final residual = 0, No Iterations 0
DILUPBiCG:  Solving for ILambda_36_0, Initial residual = 0, Final residual = 0, No Iterations 0
DILUPBiCG:  Solving for ILambda_37_0, Initial residual = 0, Final residual = 0, No Iterations 0
DILUPBiCG:  Solving for ILambda_38_0, Initial residual = 0, Final residual = 0, No Iterations 0
DILUPBiCG:  Solving for ILambda_39_0, Initial residual = 0, Final residual = 0, No Iterations 0
DILUPBiCG:  Solving for ILambda_40_0, Initial residual = 0, Final residual = 0, No Iterations 0
DILUPBiCG:  Solving for ILambda_41_0, Initial residual = 0, Final residual = 0, No Iterations 0
DILUPBiCG:  Solving for ILambda_42_0, Initial residual = 0, Final residual = 0, No Iterations 0
DILUPBiCG:  Solving for ILambda_43_0, Initial residual = 0, Final residual = 0, No Iterations 0
DILUPBiCG:  Solving for ILambda_44_0, Initial residual = 0, Final residual = 0, No Iterations 0
DILUPBiCG:  Solving for ILambda_45_0, Initial residual = 0, Final residual = 0, No Iterations 0
DILUPBiCG:  Solving for ILambda_46_0, Initial residual = 0, Final residual = 0, No Iterations 0
DILUPBiCG:  Solving for ILambda_47_0, Initial residual = 0, Final residual = 0, No Iterations 0
DILUPBiCG:  Solving for ILambda_48_0, Initial residual = 2.04613e-06, Final residual = 4.85693e-08, No Iterations 1
DILUPBiCG:  Solving for ILambda_49_0, Initial residual = 5.26169e-06, Final residual = 2.17095e-07, No Iterations 1
DILUPBiCG:  Solving for ILambda_50_0, Initial residual = 9.7432e-06, Final residual = 4.24864e-07, No Iterations 1
DILUPBiCG:  Solving for ILambda_51_0, Initial residual = 3.2849e-05, Final residual = 1.29334e-07, No Iterations 2
DILUPBiCG:  Solving for ILambda_52_0, Initial residual = 9.02473e-05, Final residual = 3.82284e-07, No Iterations 2
DILUPBiCG:  Solving for ILambda_53_0, Initial residual = 0.000199969, Final residual = 7.2006e-08, No Iterations 4
DILUPBiCG:  Solving for ILambda_54_0, Initial residual = 0.000376765, Final residual = 4.3461e-07, No Iterations 3
DILUPBiCG:  Solving for ILambda_55_0, Initial residual = 0.000616219, Final residual = 3.93626e-07, No Iterations 3
DILUPBiCG:  Solving for ILambda_56_0, Initial residual = 0.000807247, Final residual = 4.76539e-07, No Iterations 3
DILUPBiCG:  Solving for ILambda_57_0, Initial residual = 0.000605086, Final residual = 5.87248e-07, No Iterations 3
DILUPBiCG:  Solving for ILambda_58_0, Initial residual = 0.00035186, Final residual = 4.92246e-07, No Iterations 3
DILUPBiCG:  Solving for ILambda_59_0, Initial residual = 0.000178045, Final residual = 2.32601e-07, No Iterations 3
DILUPBiCG:  Solving for ILambda_60_0, Initial residual = 8.76329e-05, Final residual = 9.23708e-07, No Iterations 2
DILUPBiCG:  Solving for ILambda_61_0, Initial residual = 4.4378e-05, Final residual = 1.5842e-07, No Iterations 2
DILUPBiCG:  Solving for ILambda_62_0, Initial residual = 2.3672e-05, Final residual = 6.59274e-08, No Iterations 2
DILUPBiCG:  Solving for ILambda_63_0, Initial residual = 2.44695e-05, Final residual = 5.80427e-07, No Iterations 1
Radiation solver iter: 1
DILUPBiCG:  Solving for ILambda_0_0, Initial residual = 1.45903e-05, Final residual = 3.15382e-21, No Iterations 1
DILUPBiCG:  Solving for ILambda_1_0, Initial residual = 1.38428e-05, Final residual = 8.83555e-21, No Iterations 1
DILUPBiCG:  Solving for ILambda_2_0, Initial residual = 2.82868e-05, Final residual = 1.8307e-20, No Iterations 1
DILUPBiCG:  Solving for ILambda_3_0, Initial residual = 5.91285e-05, Final residual = 6.43106e-21, No Iterations 1
DILUPBiCG:  Solving for ILambda_4_0, Initial residual = 0.000122128, Final residual = 3.2541e-20, No Iterations 1
DILUPBiCG:  Solving for ILambda_5_0, Initial residual = 0.000240081, Final residual = 5.95933e-20, No Iterations 1
DILUPBiCG:  Solving for ILambda_6_0, Initial residual = 0.000449935, Final residual = 1.39132e-19, No Iterations 1
DILUPBiCG:  Solving for ILambda_7_0, Initial residual = 0.000599638, Final residual = 1.89188e-19, No Iterations 1
DILUPBiCG:  Solving for ILambda_8_0, Initial residual = 0.000467772, Final residual = 4.53612e-19, No Iterations 1
DILUPBiCG:  Solving for ILambda_9_0, Initial residual = 0.000284878, Final residual = 5.6891e-19, No Iterations 1
DILUPBiCG:  Solving for ILambda_10_0, Initial residual = 0.000146621, Final residual = 2.61167e-19, No Iterations 1
DILUPBiCG:  Solving for ILambda_11_0, Initial residual = 6.33522e-05, Final residual = 1.84515e-19, No Iterations 1
DILUPBiCG:  Solving for ILambda_12_0, Initial residual = 2.31544e-05, Final residual = 6.05135e-19, No Iterations 1
DILUPBiCG:  Solving for ILambda_51_0, Initial residual = 2.30944e-05, Final residual = 8.60896e-08, No Iterations 2
DILUPBiCG:  Solving for ILambda_52_0, Initial residual = 6.34369e-05, Final residual = 2.56318e-07, No Iterations 2
DILUPBiCG:  Solving for ILambda_53_0, Initial residual = 0.000146876, Final residual = 7.42665e-07, No Iterations 2
DILUPBiCG:  Solving for ILambda_54_0, Initial residual = 0.000285319, Final residual = 3.02766e-07, No Iterations 3
DILUPBiCG:  Solving for ILambda_55_0, Initial residual = 0.00046801, Final residual = 3.22398e-07, No Iterations 3
DILUPBiCG:  Solving for ILambda_56_0, Initial residual = 0.00059977, Final residual = 3.22678e-07, No Iterations 3
DILUPBiCG:  Solving for ILambda_57_0, Initial residual = 0.000446818, Final residual = 4.43424e-07, No Iterations 3
DILUPBiCG:  Solving for ILambda_58_0, Initial residual = 0.000240474, Final residual = 3.48425e-07, No Iterations 3
DILUPBiCG:  Solving for ILambda_59_0, Initial residual = 0.000122404, Final residual = 1.80875e-07, No Iterations 3
DILUPBiCG:  Solving for ILambda_60_0, Initial residual = 5.94578e-05, Final residual = 4.51419e-07, No Iterations 2
DILUPBiCG:  Solving for ILambda_61_0, Initial residual = 2.85603e-05, Final residual = 1.19352e-07, No Iterations 2
DILUPBiCG:  Solving for ILambda_62_0, Initial residual = 1.39164e-05, Final residual = 9.48101e-07, No Iterations 1
DILUPBiCG:  Solving for ILambda_63_0, Initial residual = 1.48715e-05, Final residual = 9.29157e-07, No Iterations 1
Radiation solver iter: 2
DILUPBiCG:  Solving for ILambda_0_0, Initial residual = 9.54023e-06, Final residual = 1.25552e-20, No Iterations 1
DILUPBiCG:  Solving for ILambda_1_0, Initial residual = 9.14679e-06, Final residual = 1.87134e-21, No Iterations 1
DILUPBiCG:  Solving for ILambda_2_0, Initial residual = 1.67326e-05, Final residual = 3.73747e-21, No Iterations 1
DILUPBiCG:  Solving for ILambda_3_0, Initial residual = 3.95492e-05, Final residual = 1.00795e-20, No Iterations 1
DILUPBiCG:  Solving for ILambda_4_0, Initial residual = 8.52487e-05, Final residual = 1.55027e-20, No Iterations 1
DILUPBiCG:  Solving for ILambda_5_0, Initial residual = 0.000172639, Final residual = 1.13465e-19, No Iterations 1
DILUPBiCG:  Solving for ILambda_6_0, Initial residual = 0.000330383, Final residual = 9.3574e-20, No Iterations 1
DILUPBiCG:  Solving for ILambda_7_0, Initial residual = 0.00044031, Final residual = 9.23141e-20, No Iterations 1
DILUPBiCG:  Solving for ILambda_8_0, Initial residual = 0.000348146, Final residual = 1.51741e-19, No Iterations 1
DILUPBiCG:  Solving for ILambda_9_0, Initial residual = 0.000214465, Final residual = 1.90033e-19, No Iterations 1
DILUPBiCG:  Solving for ILambda_10_0, Initial residual = 0.00010772, Final residual = 1.13278e-19, No Iterations 1
DILUPBiCG:  Solving for ILambda_11_0, Initial residual = 4.5416e-05, Final residual = 3.93079e-20, No Iterations 1
DILUPBiCG:  Solving for ILambda_12_0, Initial residual = 1.57154e-05, Final residual = 1.50886e-20, No Iterations 1
DILUPBiCG:  Solving for ILambda_51_0, Initial residual = 1.56976e-05, Final residual = 5.75585e-08, No Iterations 2
DILUPBiCG:  Solving for ILambda_52_0, Initial residual = 4.55075e-05, Final residual = 1.99074e-07, No Iterations 2
DILUPBiCG:  Solving for ILambda_53_0, Initial residual = 0.000108081, Final residual = 4.97798e-07, No Iterations 2
DILUPBiCG:  Solving for ILambda_54_0, Initial residual = 0.000214891, Final residual = 1.40492e-07, No Iterations 3
DILUPBiCG:  Solving for ILambda_55_0, Initial residual = 0.000348386, Final residual = 2.635e-07, No Iterations 3
DILUPBiCG:  Solving for ILambda_56_0, Initial residual = 0.000440384, Final residual = 2.18497e-07, No Iterations 3
DILUPBiCG:  Solving for ILambda_57_0, Initial residual = 0.000326981, Final residual = 2.9516e-07, No Iterations 3
DILUPBiCG:  Solving for ILambda_58_0, Initial residual = 0.000173043, Final residual = 2.62455e-07, No Iterations 3
DILUPBiCG:  Solving for ILambda_59_0, Initial residual = 8.54976e-05, Final residual = 1.4558e-07, No Iterations 3
DILUPBiCG:  Solving for ILambda_60_0, Initial residual = 3.98734e-05, Final residual = 2.10713e-07, No Iterations 2
DILUPBiCG:  Solving for ILambda_61_0, Initial residual = 1.69368e-05, Final residual = 1.11851e-07, No Iterations 2
DILUPBiCG:  Solving for ILambda_62_0, Initial residual = 9.59947e-06, Final residual = 5.86794e-07, No Iterations 1
DILUPBiCG:  Solving for ILambda_63_0, Initial residual = 1.01116e-05, Final residual = 2.64797e-09, No Iterations 2
ExecutionTime = 0.17 s  ClockTime = 0 s


SIMPLE solution converged in 0.06 iterations

End

